CBC-G9
  DSViewer          3D                             0

 36 38  0  0  0  0  0  0  0  0999 V2000
    4.5530    0.4680    0.0170 N   0  3  0  0  0  0  0  0  0  1
   -0.2090    1.0960    0.0670 N   0  0  0  0  0  0  0  0  0  2
   -0.5870   -1.6270   -0.0960 N   0  0  0  0  0  0  0  0  0  3
   -4.9550    1.7950    0.1220 N   0  0  0  0  0  0  0  0  0  4
    0.8460    0.2680    0.0140 C   0  0  0  0  0  0  0  0  0  5
   -1.6420   -0.7990   -0.0430 C   0  0  0  0  0  0  0  0  0  6
    0.6530   -1.1150   -0.0680 C   0  0  0  0  0  0  0  0  0  7
   -1.4500    0.5840    0.0400 C   0  0  0  0  0  0  0  0  0  8
    3.2510   -0.0700   -0.0130 C   0  0  0  0  0  0  0  0  0  9
    2.1430    0.7740    0.0410 C   0  0  0  0  0  0  0  0  0 10
   -4.0480   -0.4620   -0.0150 C   0  0  0  0  0  0  0  0  0 11
   -2.9400   -1.3050   -0.0700 C   0  0  0  0  0  0  0  0  0 12
   -3.8580    0.9100    0.0670 C   0  0  0  0  0  0  0  0  0 13
   -2.5620    1.4230    0.0940 C   0  0  0  0  0  0  0  0  0 14
    1.7650   -1.9530   -0.1230 C   0  0  0  0  0  0  0  0  0 15
    3.0610   -1.4410   -0.0960 C   0  0  0  0  0  0  0  0  0 16
   -5.4160   -1.0570   -0.0480 C   0  0  0  0  0  0  0  0  0 17
    5.6470   -0.2880    0.5960 C   0  0  0  0  0  0  0  0  0 18
    4.8210    1.7770   -0.5430 C   0  0  0  0  0  0  0  0  0 19
    2.2700    1.8520    0.1180 H   0  0  0  0  0  0  0  0  0 20
   -3.0830   -2.3830   -0.1340 H   0  0  0  0  0  0  0  0  0 21
   -2.4110    2.4990    0.1590 H   0  0  0  0  0  0  0  0  0 22
    1.6280   -3.0310   -0.1900 H   0  0  0  0  0  0  0  0  0 23
    3.8930   -2.1370   -0.1510 H   0  0  0  0  0  0  0  0  0 24
   -5.9720   -0.6970   -0.9210 H   0  0  0  0  0  0  0  0  0 25
   -5.3840   -2.1500   -0.1130 H   0  0  0  0  0  0  0  0  0 26
   -5.9680   -0.8040    0.8650 H   0  0  0  0  0  0  0  0  0 27
    6.4890    0.3650    0.8470 H   0  0  0  0  0  0  0  0  0 28
    6.0140   -1.0420   -0.1100 H   0  0  0  0  0  0  0  0  0 29
    5.3450   -0.7840    1.5250 H   0  0  0  0  0  0  0  0  0 30
    4.2930    1.9240   -1.4920 H   0  0  0  0  0  0  0  0  0 31
    5.8890    1.9060   -0.7540 H   0  0  0  0  0  0  0  0  0 32
    4.5270    2.5670    0.1570 H   0  0  0  0  0  0  0  0  0 33
   -4.7920    2.7910    0.1850 H   0  0  0  0  0  0  0  0  0 34
   -5.9040    1.4490    0.1070 H   0  0  0  0  0  0  0  0  0 35
   -0.0730    2.0850    0.1260 H   0  0  0  0  0  0  0  0  0 36
  1 18  1  0  0  0
  1 19  1  0  0  0
  1  9  2  0  0  0
  2  8  1  0  0  0
  2  5  1  0  0  0
  2 36  1  0  0  0
  3  6  1  0  0  0
  3  7  2  0  0  0
  4 34  1  0  0  0
  4 13  1  0  0  0
  4 35  1  0  0  0
  5 10  2  0  0  0
  5  7  1  0  0  0
  6 12  1  0  0  0
  6  8  2  0  0  0
  7 15  1  0  0  0
  8 14  1  0  0  0
  9 16  1  0  0  0
  9 10  1  0  0  0
 10 20  1  0  0  0
 11 17  1  0  0  0
 11 12  2  0  0  0
 11 13  1  0  0  0
 12 21  1  0  0  0
 13 14  2  0  0  0
 14 22  1  0  0  0
 15 23  1  0  0  0
 15 16  2  0  0  0
 16 24  1  0  0  0
 17 25  1  0  0  0
 17 26  1  0  0  0
 17 27  1  0  0  0
 18 30  1  0  0  0
 18 28  1  0  0  0
 18 29  1  0  0  0
 19 31  1  0  0  0
 19 32  1  0  0  0
 19 33  1  0  0  0
M  CHG  1  1  1
M  END
