CB Clip Guest6
  DSViewer          3D                             0

 56 59  0  0  0  0  0  0  0  0999 V2000
   -0.5580    2.2780    0.0070 C   0  0  0  0  0  0  0  0  0  1
   -1.2700    1.1240    0.1650 C   0  0  0  0  0  0  0  0  0  2
   -0.6220   -0.1320    0.1510 C   0  0  0  0  0  0  0  0  0  3
    0.7640   -0.1840   -0.0370 C   0  0  0  0  0  0  0  0  0  4
    1.4840    1.0220   -0.1950 C   0  0  0  0  0  0  0  0  0  5
    0.8410    2.2270   -0.1700 C   0  0  0  0  0  0  0  0  0  6
   -1.3420   -1.3380    0.3110 C   0  0  0  0  0  0  0  0  0  7
    1.4120   -1.4400   -0.0640 C   0  0  0  0  0  0  0  0  0  8
    0.7000   -2.5940    0.0940 C   0  0  0  0  0  0  0  0  0  9
   -0.6990   -2.5430    0.2830 C   0  0  0  0  0  0  0  0  0 10
    2.9520    0.9780   -0.4140 C   0  0  0  0  0  0  0  0  0 11
    2.8800   -1.4940   -0.2890 C   0  0  0  0  0  0  0  0  0 12
    3.6170    1.9670   -0.5180 O   0  0  0  0  0  0  0  0  0 13
    3.5050   -2.5060   -0.3050 O   0  0  0  0  0  0  0  0  0 14
    3.5360   -0.2810   -0.5050 N   0  0  0  0  0  0  0  0  0 15
    4.9250   -0.3760   -0.9480 C   0  0  0  0  0  0  0  0  0 16
    5.9090   -0.8010    0.1580 C   0  0  0  0  0  0  0  0  0 17
    6.9400    0.2470    0.5270 N   0  3  0  0  0  0  0  0  0 18
    7.8220    0.6590   -0.6090 C   0  0  0  0  0  0  0  0  0 19
    6.3640    1.4320    1.2420 C   0  0  0  0  0  0  0  0  0 20
   -2.7430    1.1860    0.3460 C   0  0  0  0  0  0  0  0  0 21
   -2.8140   -1.2890    0.5070 C   0  0  0  0  0  0  0  0  0 22
   -3.3610    2.2060    0.3080 O   0  0  0  0  0  0  0  0  0 23
   -3.4940   -2.2640    0.6070 O   0  0  0  0  0  0  0  0  0 24
   -3.3990   -0.0240    0.5640 N   0  0  0  0  0  0  0  0  0 25
   -4.8210    0.0380    0.8660 C   0  0  0  0  0  0  0  0  0 26
   -5.6520   -0.1420   -0.4110 C   0  0  0  0  0  0  0  0  0 27
   -7.1100    0.1390   -0.1600 N   0  3  0  0  0  0  0  0  0 28
   -7.4160    1.6070   -0.1330 C   0  0  0  0  0  0  0  0  0 29
   -7.9850   -0.5710   -1.1440 C   0  0  0  0  0  0  0  0  0 30
   -1.0670    3.2230    0.0180 H   0  0  0  0  0  0  0  0  0 31
    1.4030    3.1320   -0.2950 H   0  0  0  0  0  0  0  0  0 32
    1.2060   -3.5400    0.0670 H   0  0  0  0  0  0  0  0  0 33
   -1.2610   -3.4480    0.4050 H   0  0  0  0  0  0  0  0  0 34
    5.1790    0.5790   -1.3750 H   0  0  0  0  0  0  0  0  0 35
    4.9640   -1.1150   -1.7340 H   0  0  0  0  0  0  0  0  0 36
    6.4690   -1.6730   -0.1530 H   0  0  0  0  0  0  0  0  0 37
    5.3900   -1.0480    1.0710 H   0  0  0  0  0  0  0  0  0 38
    7.5440   -0.2150    1.1910 H   0  0  0  0  0  0  0  0  0 39
    7.2710    1.3090   -1.2730 H   0  0  0  0  0  0  0  0  0 40
    8.1590   -0.2220   -1.1390 H   0  0  0  0  0  0  0  0  0 41
    8.6710    1.1950   -0.2070 H   0  0  0  0  0  0  0  0  0 42
    5.6810    1.9490    0.5830 H   0  0  0  0  0  0  0  0  0 43
    7.1760    2.0820    1.5330 H   0  0  0  0  0  0  0  0  0 44
    5.8410    1.0840    2.1190 H   0  0  0  0  0  0  0  0  0 45
   -5.0470   -0.7420    1.5700 H   0  0  0  0  0  0  0  0  0 46
   -5.0080    0.9970    1.3310 H   0  0  0  0  0  0  0  0  0 47
   -5.3320    0.5250   -1.1950 H   0  0  0  0  0  0  0  0  0 48
   -5.5700   -1.1660   -0.7580 H   0  0  0  0  0  0  0  0  0 49
   -7.3390   -0.2340    0.7520 H   0  0  0  0  0  0  0  0  0 50
   -7.2630    2.0000   -1.1270 H   0  0  0  0  0  0  0  0  0 51
   -6.7570    2.1020    0.5620 H   0  0  0  0  0  0  0  0  0 52
   -8.4440    1.7450    0.1660 H   0  0  0  0  0  0  0  0  0 53
   -7.7320   -0.2290   -2.1350 H   0  0  0  0  0  0  0  0  0 54
   -9.0170   -0.3410   -0.9240 H   0  0  0  0  0  0  0  0  0 55
   -7.8160   -1.6340   -1.0620 H   0  0  0  0  0  0  0  0  0 56
  1  2  1  0  0  0
  1  6  2  0  0  0
  1 31  1  0  0  0
  2  3  2  0  0  0
  2 21  1  0  0  0
  3  4  1  0  0  0
  3  7  1  0  0  0
  4  5  2  0  0  0
  4  8  1  0  0  0
  5  6  1  0  0  0
  5 11  1  0  0  0
  6 32  1  0  0  0
  7 10  2  0  0  0
  7 22  1  0  0  0
  8  9  2  0  0  0
  8 12  1  0  0  0
  9 10  1  0  0  0
  9 33  1  0  0  0
 10 34  1  0  0  0
 11 13  2  0  0  0
 11 15  1  0  0  0
 12 14  2  0  0  0
 12 15  1  0  0  0
 15 16  1  0  0  0
 16 17  1  0  0  0
 16 35  1  0  0  0
 16 36  1  0  0  0
 17 18  1  0  0  0
 17 37  1  0  0  0
 17 38  1  0  0  0
 18 19  1  0  0  0
 18 20  1  0  0  0
 18 39  1  0  0  0
 19 40  1  0  0  0
 19 41  1  0  0  0
 19 42  1  0  0  0
 20 43  1  0  0  0
 20 44  1  0  0  0
 20 45  1  0  0  0
 21 23  2  0  0  0
 21 25  1  0  0  0
 22 24  2  0  0  0
 22 25  1  0  0  0
 25 26  1  0  0  0
 26 27  1  0  0  0
 26 46  1  0  0  0
 26 47  1  0  0  0
 27 28  1  0  0  0
 27 48  1  0  0  0
 27 49  1  0  0  0
 28 29  1  0  0  0
 28 30  1  0  0  0
 28 50  1  0  0  0
 29 51  1  0  0  0
 29 52  1  0  0  0
 29 53  1  0  0  0
 30 54  1  0  0  0
 30 55  1  0  0  0
 30 56  1  0  0  0
M  CHG  2  18   1  28   1
M  END
