CB Clip guest2
  DSViewer          3D                             0

 20 19  0  0  0  0  0  0  0  0999 V2000
   -3.3060    1.9930    0.8080 C   0  0  0  0  0  0  0  0  0  1
   -2.4980    3.2530    1.1620 C   0  0  0  0  0  0  0  0  0  2
   -2.7670    3.7300    2.6070 C   0  0  0  0  0  0  0  0  0  3
   -1.9590    4.9900    2.9610 C   0  0  0  0  0  0  0  0  0  4
   -2.2330    5.4260    4.3480 N   0  3  0  0  0  0  0  0  0  5
   -3.0320    1.5570   -0.5790 N   0  3  0  0  0  0  0  0  0  6
   -4.3520    2.1830    0.9320 H   0  0  0  0  0  0  0  0  0  7
   -3.0070    1.2080    1.4700 H   0  0  0  0  0  0  0  0  0  8
   -2.7300    4.0380    0.4720 H   0  0  0  0  0  0  0  0  0  9
   -1.4600    3.0010    1.0940 H   0  0  0  0  0  0  0  0  0 10
   -2.5350    2.9450    3.2970 H   0  0  0  0  0  0  0  0  0 11
   -3.8050    3.9820    2.6750 H   0  0  0  0  0  0  0  0  0 12
   -2.1930    5.7790    2.2770 H   0  0  0  0  0  0  0  0  0 13
   -0.9190    4.7520    2.8850 H   0  0  0  0  0  0  0  0  0 14
   -3.2220    5.6580    4.4430 H   0  0  0  0  0  0  0  0  0 15
   -1.6560    6.2330    4.5850 H   0  0  0  0  0  0  0  0  0 16
   -2.0040    4.6670    4.9900 H   0  0  0  0  0  0  0  0  0 17
   -3.3100    2.2930   -1.2280 H   0  0  0  0  0  0  0  0  0 18
   -3.5370    0.6950   -0.7850 H   0  0  0  0  0  0  0  0  0 19
   -2.0330    1.3780   -0.6830 H   0  0  0  0  0  0  0  0  0 20
  1  2  1  0  0  0
  1  6  1  0  0  0
  1  7  1  0  0  0
  1  8  1  0  0  0
  2  3  1  0  0  0
  2  9  1  0  0  0
  2 10  1  0  0  0
  3  4  1  0  0  0
  3 11  1  0  0  0
  3 12  1  0  0  0
  4  5  1  0  0  0
  4 13  1  0  0  0
  4 14  1  0  0  0
  5 15  1  0  0  0
  5 16  1  0  0  0
  5 17  1  0  0  0
  6 18  1  0  0  0
  6 19  1  0  0  0
  6 20  1  0  0  0
M  CHG  2   5   1   6   1
M  END
