CBC-G10
  DSViewer          3D                             0

 38 40  0  0  0  0  0  0  0  0999 V2000
    0.0000   -1.3090    0.0760 S   0  0  0  0  0  0  0  0  0  1
   -5.0580   -0.5500    0.0420 N   0  0  0  0  0  0  0  0  0  2
    5.0480   -0.5480    0.0360 N   0  3  0  0  0  0  0  0  0  3
    0.0040    1.7750   -0.1290 N   0  0  0  0  0  0  0  0  0  4
   -1.3570   -0.2500    0.0080 C   0  0  0  0  0  0  0  0  0  5
    1.3660   -0.2560    0.0060 C   0  0  0  0  0  0  0  0  0  6
   -1.1750    1.1620   -0.0860 C   0  0  0  0  0  0  0  0  0  7
    1.1900    1.1580   -0.0880 C   0  0  0  0  0  0  0  0  0  8
   -3.7660    0.0010   -0.0010 C   0  0  0  0  0  0  0  0  0  9
    3.7680   -0.0030   -0.0070 C   0  0  0  0  0  0  0  0  0 10
   -2.6390   -0.8180    0.0520 C   0  0  0  0  0  0  0  0  0 11
    2.6470   -0.8230    0.0480 C   0  0  0  0  0  0  0  0  0 12
   -2.3440    1.9700   -0.1400 C   0  0  0  0  0  0  0  0  0 13
    2.3580    1.9660   -0.1450 C   0  0  0  0  0  0  0  0  0 14
   -3.6010    1.4200   -0.1000 C   0  0  0  0  0  0  0  0  0 15
    3.6100    1.4110   -0.1070 C   0  0  0  0  0  0  0  0  0 16
   -5.3040   -1.9850   -0.2210 C   0  0  0  0  0  0  0  0  0 17
   -6.2470    0.2620    0.3820 C   0  0  0  0  0  0  0  0  0 18
    6.2110    0.2380    0.4860 C   0  0  0  0  0  0  0  0  0 19
    5.3010   -1.9540   -0.3270 C   0  0  0  0  0  0  0  0  0 20
   -2.7160   -1.8710    0.1380 H   0  0  0  0  0  0  0  0  0 21
    2.7430   -1.8710    0.1370 H   0  0  0  0  0  0  0  0  0 22
   -2.2110    3.0210   -0.2150 H   0  0  0  0  0  0  0  0  0 23
    2.2380    3.0160   -0.2210 H   0  0  0  0  0  0  0  0  0 24
   -4.4480    2.0560   -0.1570 H   0  0  0  0  0  0  0  0  0 25
    4.4670    2.0280   -0.1670 H   0  0  0  0  0  0  0  0  0 26
   -5.1080   -2.5270    0.6940 H   0  0  0  0  0  0  0  0  0 27
   -4.6480   -2.3040   -1.0210 H   0  0  0  0  0  0  0  0  0 28
   -6.3350   -2.1080   -0.5280 H   0  0  0  0  0  0  0  0  0 29
   -7.0250   -0.3980    0.7430 H   0  0  0  0  0  0  0  0  0 30
   -6.5650    0.7750   -0.5160 H   0  0  0  0  0  0  0  0  0 31
   -5.9720    0.9590    1.1630 H   0  0  0  0  0  0  0  0  0 32
    5.8820    0.9050    1.2730 H   0  0  0  0  0  0  0  0  0 33
    6.5860    0.7860   -0.3680 H   0  0  0  0  0  0  0  0  0 34
    6.9590   -0.4430    0.8710 H   0  0  0  0  0  0  0  0  0 35
    4.6390   -2.2160   -1.1420 H   0  0  0  0  0  0  0  0  0 36
    5.1100   -2.5580    0.5500 H   0  0  0  0  0  0  0  0  0 37
    6.3310   -2.0450   -0.6470 H   0  0  0  0  0  0  0  0  0 38
  1  6  1  0  0  0
  1  5  1  0  0  0
  2 18  1  0  0  0
  2  9  1  0  0  0
  2 17  1  0  0  0
  3 19  1  0  0  0
  3 20  1  0  0  0
  3 10  2  0  0  0
  4  8  2  0  0  0
  4  7  1  0  0  0
  5 11  2  0  0  0
  5  7  1  0  0  0
  6 12  2  0  0  0
  6  8  1  0  0  0
  7 13  2  0  0  0
  8 14  1  0  0  0
  9 15  2  0  0  0
  9 11  1  0  0  0
 10 16  1  0  0  0
 10 12  1  0  0  0
 11 21  1  0  0  0
 12 22  1  0  0  0
 13 15  1  0  0  0
 13 23  1  0  0  0
 14 16  2  0  0  0
 14 24  1  0  0  0
 15 25  1  0  0  0
 16 26  1  0  0  0
 17 29  1  0  0  0
 17 28  1  0  0  0
 17 27  1  0  0  0
 18 32  1  0  0  0
 18 30  1  0  0  0
 18 31  1  0  0  0
 19 33  1  0  0  0
 19 35  1  0  0  0
 19 34  1  0  0  0
 20 38  1  0  0  0
 20 36  1  0  0  0
 20 37  1  0  0  0
M  CHG  1  3  1
M  END
