CB Clip guest4
  DSViewer          3D                             0

 28 30  0  0  0  0  0  0  0  0999 V2000
   -3.5490   -0.4970    0.5880 C   0  0  0  0  0  0  0  0  0  1
   -2.4990   -0.9150   -0.2200 C   0  0  0  0  0  0  0  0  0  2
   -1.2360   -0.3570   -0.0060 C   0  0  0  0  0  0  0  0  0  3
   -1.0020    0.6170    1.0080 C   0  0  0  0  0  0  0  0  0  4
   -2.1080    1.0160    1.8140 C   0  0  0  0  0  0  0  0  0  5
   -3.3540    0.4750    1.6120 C   0  0  0  0  0  0  0  0  0  6
    0.2790    1.1430    1.1820 C   0  0  0  0  0  0  0  0  0  7
    1.3270    0.7170    0.3650 C   0  0  0  0  0  0  0  0  0  8
    1.0820   -0.2570   -0.6460 C   0  0  0  0  0  0  0  0  0  9
    2.0970   -0.7170   -1.4910 C   0  0  0  0  0  0  0  0  0 10
    3.3730   -0.2020   -1.3280 C   0  0  0  0  0  0  0  0  0 11
    3.6570    0.7700   -0.3330 C   0  0  0  0  0  0  0  0  0 12
    2.6570    1.2180    0.4950 C   0  0  0  0  0  0  0  0  0 13
   -0.1880   -0.7570   -0.7940 N   0  3  0  0  0  0  0  0  0 14
   -4.8040   -1.0180    0.4110 N   0  0  0  0  0  0  0  0  0 15
    4.3890   -0.6250   -2.1330 N   0  0  0  0  0  0  0  0  0 16
    1.8980   -1.4400   -2.2360 H   0  0  0  0  0  0  0  0  0 17
   -2.6360   -1.6360   -0.9830 H   0  0  0  0  0  0  0  0  0 18
   -1.9500    1.7400    2.5740 H   0  0  0  0  0  0  0  0  0 19
   -4.1700    0.7790    2.2180 H   0  0  0  0  0  0  0  0  0 20
    0.4600    1.8670    1.9340 H   0  0  0  0  0  0  0  0  0 21
    4.6450    1.1380   -0.2410 H   0  0  0  0  0  0  0  0  0 22
    2.8812    1.9630    1.2584 H   0  0  0  0  0  0  0  0  0 23
    4.2230   -1.3290   -2.8660 H   0  0  0  0  0  0  0  0  0 24
    5.3410   -0.2470   -2.0170 H   0  0  0  0  0  0  0  0  0 25
   -4.9773   -1.7488   -0.3511 H   0  0  0  0  0  0  0  0  0 26
   -5.6106   -0.6940    1.0349 H   0  0  0  0  0  0  0  0  0 27
   -0.3360   -1.4610   -1.5340 H   0  0  0  0  0  0  0  0  0 28
  1  2  1  0  0  0
  1  6  2  0  0  0
  1 15  1  0  0  0
  2  3  2  0  0  0
  2 18  1  0  0  0
  3  4  1  0  0  0
  3 14  1  0  0  0
  4  5  2  0  0  0
  4  7  1  0  0  0
  5  6  1  0  0  0
  5 19  1  0  0  0
  6 20  1  0  0  0
  7  8  2  0  0  0
  7 21  1  0  0  0
  8  9  1  0  0  0
  8 13  1  0  0  0
  9 10  1  0  0  0
  9 14  2  0  0  0
 10 11  2  0  0  0
 10 17  1  0  0  0
 11 12  1  0  0  0
 11 16  1  0  0  0
 12 13  2  0  0  0
 12 22  1  0  0  0
 13 23  1  0  0  0
 14 28  1  0  0  0
 15 26  1  0  0  0
 15 27  1  0  0  0
 16 24  1  0  0  0
 16 25  1  0  0  0
M  CHG  1  14   1
M  END
