a-cyclodex
  DSViewer          3D                             0

126132  0  0  0  0  0  0  0  0999 V2000
    0.1164    0.8149    0.5445 C   0  0  1  0  0  0
   -0.6137    2.1387    0.2651 C   0  0  1  0  0  0
   -1.3542    2.0236   -1.0728 C   0  0  2  0  0  0
   -0.3774    1.6284   -2.1751 C   0  0  1  0  0  0
    0.3681    0.3399   -1.7862 C   0  0  1  0  0  0
    1.4767   -0.0262   -2.7780 C   0  0  0  0  0  0
   -0.8890   -0.1714    0.5988 O   0  0  0  0  0  0
   -1.5647    2.4559    1.2649 O   0  0  0  0  0  0
   -2.0044    3.2330   -1.4310 O   0  0  0  0  0  0
    0.9924    0.5106   -0.5228 O   0  0  0  0  0  0
    2.4447   -0.8492   -2.1490 O   0  0  0  0  0  0
   -2.0709   -3.5151    2.6804 C   0  0  1  0  0  0
   -2.4695   -2.1577    3.2821 C   0  0  1  0  0  0
   -2.3057   -1.0731    2.2103 C   0  0  2  0  0  0
   -0.8832   -1.0960    1.6613 C   0  0  1  0  0  0
   -0.5345   -2.5049    1.1507 C   0  0  1  0  0  0
    0.9325   -2.6368    0.7298 C   0  0  0  0  0  0
   -2.9504   -3.7265    1.5994 O   0  0  0  0  0  0
   -3.8139   -2.1340    3.7257 O   0  0  0  0  0  0
   -2.5969    0.2226    2.7103 O   0  0  0  0  0  0
   -0.7486   -3.4549    2.1835 O   0  0  0  0  0  0
    1.3375   -3.9944    0.7834 O   0  0  0  0  0  0
   -5.2084   -6.6221   -0.2521 C   0  0  1  0  0  0
   -5.8439   -5.9335    0.9667 C   0  0  1  0  0  0
   -5.0616   -4.6512    1.2754 C   0  0  2  0  0  0
   -3.5846   -4.9773    1.4682 C   0  0  1  0  0  0
   -3.0437   -5.7324    0.2416 C   0  0  1  0  0  0
   -1.6073   -6.2278    0.4362 C   0  0  0  0  0  0
   -5.3074   -5.6949   -1.3090 O   0  0  0  0  0  0
   -7.1963   -5.5777    0.7454 O   0  0  0  0  0  0
   -5.5525   -3.9891    2.4306 O   0  0  0  0  0  0
   -3.8408   -6.8811   -0.0032 O   0  0  0  0  0  0
   -1.3450   -7.3215   -0.4270 O   0  0  0  0  0  0
   -6.1602   -5.3990   -5.3209 C   0  0  1  0  0  0
   -7.3636   -5.4101   -4.3643 C   0  0  1  0  0  0
   -6.8677   -5.1289   -2.9406 C   0  0  2  0  0  0
   -5.7844   -6.1323   -2.5600 C   0  0  1  0  0  0
   -4.6556   -6.1161   -3.6054 C   0  0  1  0  0  0
   -3.6114   -7.2115   -3.3676 C   0  0  0  0  0  0
   -5.6029   -4.1084   -5.2183 O   0  0  0  0  0  0
   -8.3279   -4.4270   -4.6932 O   0  0  0  0  0  0
   -7.9171   -5.1843   -1.9871 O   0  0  0  0  0  0
   -5.1967   -6.3434   -4.8979 O   0  0  0  0  0  0
   -2.9295   -7.5088   -4.5745 O   0  0  0  0  0  0
   -3.9682   -1.0723   -7.4590 C   0  0  1  0  0  0
   -5.5031   -1.1163   -7.3818 C   0  0  1  0  0  0
   -5.9151   -2.0322   -6.2230 C   0  0  2  0  0  0
   -5.2795   -3.4075   -6.3965 C   0  0  1  0  0  0
   -3.7541   -3.2719   -6.5441 C   0  0  1  0  0  0
   -3.0702   -4.6013   -6.8786 C   0  0  0  0  0  0
   -3.5384   -0.5556   -6.2200 O   0  0  0  0  0  0
   -6.0721    0.1600   -7.1535 O   0  0  0  0  0  0
   -7.3238   -2.1731   -6.1262 O   0  0  0  0  0  0
   -3.4533   -2.3807   -7.6073 O   0  0  0  0  0  0
   -1.8239   -4.3654   -7.5119 O   0  0  0  0  0  0
   -0.8266    2.0315   -4.5276 C   0  0  1  0  0  0
   -2.1226    2.6562   -5.0694 C   0  0  1  0  0  0
   -3.1545    1.5435   -5.2906 C   0  0  2  0  0  0
   -2.5733    0.4703   -6.2048 C   0  0  1  0  0  0
   -1.2416   -0.0479   -5.6344 C   0  0  1  0  0  0
   -0.5267   -1.0153   -6.5831 C   0  0  0  0  0  0
   -1.1804    1.4123   -3.3119 O   0  0  0  0  0  0
   -2.6839    3.6016   -4.1773 O   0  0  0  0  0  0
   -4.3618    2.0359   -5.8505 O   0  0  0  0  0  0
   -0.3565    1.0410   -5.4205 O   0  0  0  0  0  0
    0.8619   -1.0440   -6.2986 O   0  0  0  0  0  0
    0.6797    0.8823    1.4766 H   0  0  0  0  0  0
    0.1143    2.9505    0.2228 H   0  0  0  0  0  0
   -2.1105    1.2328   -1.0191 H   0  0  0  0  0  0
    0.3331    2.4414   -2.3305 H   0  0  0  0  0  0
   -0.3333   -0.4940   -1.7320 H   0  0  0  0  0  0
    1.9661    0.8656   -3.1821 H   0  0  0  0  0  0
    1.0599   -0.5704   -3.6257 H   0  0  0  0  0  0
   -1.9880    1.6373    1.5458 H   0  0  0  0  0  0
   -2.4566    3.5517   -0.6460 H   0  0  0  0  0  0
    2.6843   -0.4363   -1.3159 H   0  0  0  0  0  0
   -2.1466   -4.3006    3.4340 H   0  0  0  0  0  0
   -1.8284   -1.9399    4.1378 H   0  0  0  0  0  0
   -2.9758   -1.2716    1.3666 H   0  0  0  0  0  0
   -0.1911   -0.8004    2.4509 H   0  0  0  0  0  0
   -1.1615   -2.7562    0.2940 H   0  0  0  0  0  0
    1.5898   -2.0366    1.3669 H   0  0  0  0  0  0
    1.0661   -2.2773   -0.2907 H   0  0  0  0  0  0
   -4.3441   -2.6410    3.1012 H   0  0  0  0  0  0
   -3.4100    0.1519    3.2163 H   0  0  0  0  0  0
    1.0642   -4.3488    1.6330 H   0  0  0  0  0  0
   -5.7268   -7.5566   -0.4725 H   0  0  0  0  0  0
   -5.8090   -6.6098    1.8223 H   0  0  0  0  0  0
   -5.1266   -3.9564    0.4307 H   0  0  0  0  0  0
   -3.4677   -5.5861    2.3659 H   0  0  0  0  0  0
   -3.0674   -5.0835   -0.6352 H   0  0  0  0  0  0
   -1.4225   -6.5304    1.4717 H   0  0  0  0  0  0
   -0.8991   -5.4310    0.2079 H   0  0  0  0  0  0
   -7.2820   -5.2796   -0.1667 H   0  0  0  0  0  0
   -6.5102   -3.9744    2.3600 H   0  0  0  0  0  0
   -2.0683   -7.9466   -0.3367 H   0  0  0  0  0  0
   -6.4821   -5.6302   -6.3375 H   0  0  0  0  0  0
   -7.8494   -6.3863   -4.4067 H   0  0  0  0  0  0
   -6.4122   -4.1338   -2.8889 H   0  0  0  0  0  0
   -6.2259   -7.1280   -2.4989 H   0  0  0  0  0  0
   -4.1491   -5.1499   -3.5914 H   0  0  0  0  0  0
   -4.0686   -8.1251   -2.9746 H   0  0  0  0  0  0
   -2.8794   -6.8812   -2.6304 H   0  0  0  0  0  0
   -7.8616   -3.6374   -4.9887 H   0  0  0  0  0  0
   -8.6566   -4.6940   -2.3546 H   0  0  0  0  0  0
   -3.5892   -7.6367   -5.2605 H   0  0  0  0  0  0
   -3.6486   -0.4526   -8.2982 H   0  0  0  0  0  0
   -5.9009   -1.4993   -8.3229 H   0  0  0  0  0  0
   -5.5467   -1.6288   -5.2733 H   0  0  0  0  0  0
   -5.7016   -3.8866   -7.2809 H   0  0  0  0  0  0
   -3.3232   -2.8874   -5.6185 H   0  0  0  0  0  0
   -3.6949   -5.2234   -7.5272 H   0  0  0  0  0  0
   -2.8914   -5.1732   -5.9679 H   0  0  0  0  0  0
   -5.4993    0.6385   -6.5443 H   0  0  0  0  0  0
   -7.7005   -1.2941   -6.2144 H   0  0  0  0  0  0
   -1.9680   -3.7272   -8.2147 H   0  0  0  0  0  0
   -0.0631    2.7993   -4.3931 H   0  0  0  0  0  0
   -1.9117    3.1653   -6.0112 H   0  0  0  0  0  0
   -3.3939    1.0557   -4.3392 H   0  0  0  0  0  0
   -2.4174    0.8936   -7.1980 H   0  0  0  0  0  0
   -1.4167   -0.5616   -4.6880 H   0  0  0  0  0  0
   -0.6768   -0.7365   -7.6308 H   0  0  0  0  0  0
   -0.9240   -2.0235   -6.4636 H   0  0  0  0  0  0
   -2.5592    3.2763   -3.2790 H   0  0  0  0  0  0
   -4.5938    2.8302   -5.3630 H   0  0  0  0  0  0
    1.1689   -0.1359   -6.2431 H   0  0  0  0  0  0
  1 67  1  0  0  0
  1  2  1  0  0  0
  1  7  1  0  0  0
  1 10  1  0  0  0
  2  8  1  0  0  0
  2 68  1  0  0  0
  2  3  1  0  0  0
  3  9  1  0  0  0
  3 69  1  0  0  0
  3  4  1  0  0  0
  4 62  1  0  0  0
  4  5  1  0  0  0
  4 70  1  0  0  0
  5  6  1  0  0  0
  5 10  1  0  0  0
  5 71  1  0  0  0
  6 11  1  0  0  0
  6 72  1  0  0  0
  6 73  1  0  0  0
  7 15  1  0  0  0
  8 74  1  0  0  0
  9 75  1  0  0  0
 11 76  1  0  0  0
 12 13  1  0  0  0
 12 21  1  0  0  0
 12 77  1  0  0  0
 12 18  1  0  0  0
 13 14  1  0  0  0
 13 78  1  0  0  0
 13 19  1  0  0  0
 14 20  1  0  0  0
 14 79  1  0  0  0
 14 15  1  0  0  0
 15 16  1  0  0  0
 15 80  1  0  0  0
 16 81  1  0  0  0
 16 17  1  0  0  0
 16 21  1  0  0  0
 17 82  1  0  0  0
 17 22  1  0  0  0
 17 83  1  0  0  0
 18 26  1  0  0  0
 19 84  1  0  0  0
 20 85  1  0  0  0
 22 86  1  0  0  0
 23 29  1  0  0  0
 23 32  1  0  0  0
 23 87  1  0  0  0
 23 24  1  0  0  0
 24 30  1  0  0  0
 24 25  1  0  0  0
 24 88  1  0  0  0
 25 26  1  0  0  0
 25 89  1  0  0  0
 25 31  1  0  0  0
 26 27  1  0  0  0
 26 90  1  0  0  0
 27 28  1  0  0  0
 27 91  1  0  0  0
 27 32  1  0  0  0
 28 92  1  0  0  0
 28 93  1  0  0  0
 28 33  1  0  0  0
 29 37  1  0  0  0
 30 94  1  0  0  0
 31 95  1  0  0  0
 33 96  1  0  0  0
 34 97  1  0  0  0
 34 40  1  0  0  0
 34 35  1  0  0  0
 34 43  1  0  0  0
 35 98  1  0  0  0
 35 41  1  0  0  0
 35 36  1  0  0  0
 36 99  1  0  0  0
 36 42  1  0  0  0
 36 37  1  0  0  0
 37100  1  0  0  0
 37 38  1  0  0  0
 38 43  1  0  0  0
 38101  1  0  0  0
 38 39  1  0  0  0
 39102  1  0  0  0
 39103  1  0  0  0
 39 44  1  0  0  0
 40 48  1  0  0  0
 41104  1  0  0  0
 42105  1  0  0  0
 44106  1  0  0  0
 45107  1  0  0  0
 45 46  1  0  0  0
 45 54  1  0  0  0
 45 51  1  0  0  0
 46108  1  0  0  0
 46 52  1  0  0  0
 46 47  1  0  0  0
 47 53  1  0  0  0
 47 48  1  0  0  0
 47109  1  0  0  0
 48 49  1  0  0  0
 48110  1  0  0  0
 49111  1  0  0  0
 49 50  1  0  0  0
 49 54  1  0  0  0
 50113  1  0  0  0
 50 55  1  0  0  0
 50112  1  0  0  0
 51 59  1  0  0  0
 52114  1  0  0  0
 53115  1  0  0  0
 55116  1  0  0  0
 56117  1  0  0  0
 56 57  1  0  0  0
 56 65  1  0  0  0
 56 62  1  0  0  0
 57 63  1  0  0  0
 57 58  1  0  0  0
 57118  1  0  0  0
 58119  1  0  0  0
 58 64  1  0  0  0
 58 59  1  0  0  0
 59 60  1  0  0  0
 59120  1  0  0  0
 60 61  1  0  0  0
 60 65  1  0  0  0
 60121  1  0  0  0
 61 66  1  0  0  0
 61123  1  0  0  0
 61122  1  0  0  0
 63124  1  0  0  0
 64125  1  0  0  0
 66126  1  0  0  0
M  END

$$$$
b-cyclodex
  DSViewer          3D                             0

147154  0  0  0  0  0  0  0  0999 V2000
    1.6640   -0.0260    0.2620 C   0  0  2  0  0  0
    2.1770    1.4130    0.4120 C   0  0  2  0  0  0
    3.5350    1.4000    0.8260 O   0  0  0  0  0  0
    1.3530    2.1460    1.4710 C   0  0  1  0  0  0
    1.8060    3.4890    1.5430 O   0  0  0  0  0  0
   -0.1320    2.0460    1.1370 C   0  0  2  0  0  0
   -0.8020    2.6650    2.2130 O   0  0  0  0  0  0
   -0.5300    0.5680    1.0120 C   0  0  2  0  0  0
    0.2710   -0.0430    0.0130 O   0  0  0  0  0  0
   -1.9880    0.3820    0.5800 C   0  0  0  0  0  0
   -2.1610   -0.8880   -0.0260 O   0  0  0  0  0  0
   -1.6860    3.7250    1.9180 C   0  0  2  0  0  0
   -1.4040    4.8540    2.9160 C   0  0  2  0  0  0
   -0.0300    5.2100    2.8660 O   0  0  0  0  0  0
   -1.7350    4.3860    4.3340 C   0  0  1  0  0  0
   -1.5210    5.4800    5.2120 O   0  0  0  0  0  0
   -3.1590    3.8380    4.3960 C   0  0  2  0  0  0
   -3.2960    3.3070    5.6960 O   0  0  0  0  0  0
   -3.3440    2.7420    3.3340 C   0  0  2  0  0  0
   -3.0150    3.2600    2.0550 O   0  0  0  0  0  0
   -4.7890    2.2450    3.2410 C   0  0  0  0  0  0
   -5.0200    1.6390    1.9790 O   0  0  0  0  0  0
   -4.4840    3.5840    6.4070 C   0  0  2  0  0  0
   -4.0900    4.3080    7.7040 C   0  0  2  0  0  0
   -3.2800    5.4370    7.4110 O   0  0  0  0  0  0
   -3.2790    3.3650    8.5940 C   0  0  1  0  0  0
   -2.9800    4.0380    9.8070 O   0  0  0  0  0  0
   -4.0490    2.0680    8.8190 C   0  0  2  0  0  0
   -3.1880    1.2420    9.5700 O   0  0  0  0  0  0
   -4.3850    1.4340    7.4620 C   0  0  2  0  0  0
   -5.1350    2.3600    6.6920 O   0  0  0  0  0  0
   -5.2440    0.1730    7.5990 C   0  0  0  0  0  0
   -5.9440   -0.0790    6.3920 O   0  0  0  0  0  0
   -3.6490    0.7800   10.8220 C   0  0  2  0  0  0
   -2.4950    0.9260   11.8240 C   0  0  2  0  0  0
   -2.0220    2.2650   11.8200 O   0  0  0  0  0  0
   -1.3480   -0.0030   11.4250 C   0  0  1  0  0  0
   -0.3200    0.1030   12.3980 O   0  0  0  0  0  0
   -1.8640   -1.4310   11.2740 C   0  0  2  0  0  0
   -0.7620   -2.1830   10.8200 O   0  0  0  0  0  0
   -3.0110   -1.4550   10.2530 C   0  0  2  0  0  0
   -4.0350   -0.5740   10.6870 O   0  0  0  0  0  0
   -3.6560   -2.8370   10.1140 C   0  0  0  0  0  0
   -4.9660   -2.7120    9.5860 O   0  0  0  0  0  0
   -0.3580   -3.2930   11.5920 C   0  0  2  0  0  0
    1.1720   -3.2590   11.6870 C   0  0  2  0  0  0
    1.5930   -2.0050   12.2030 O   0  0  0  0  0  0
    1.7790   -3.4450   10.2950 C   0  0  1  0  0  0
    3.1910   -3.4770   10.4350 O   0  0  0  0  0  0
    1.2190   -4.7010    9.6310 C   0  0  2  0  0  0
    1.7300   -4.6810    8.3160 O   0  0  0  0  0  0
   -0.3170   -4.6480    9.6230 C   0  0  2  0  0  0
   -0.7920   -4.4740   10.9490 O   0  0  0  0  0  0
   -0.9550   -5.9390    9.1020 C   0  0  0  0  0  0
   -2.2930   -6.0450    9.5590 O   0  0  0  0  0  0
    2.2240   -5.8880    7.7760 C   0  0  2  0  0  0
    3.6920   -5.6530    7.3900 C   0  0  2  0  0  0
    4.4140   -5.1350    8.4970 O   0  0  0  0  0  0
    3.7700   -4.6290    6.2550 C   0  0  1  0  0  0
    5.1290   -4.4840    5.8720 O   0  0  0  0  0  0
    2.8800   -5.0620    5.0950 C   0  0  2  0  0  0
    2.9550   -4.0150    4.1540 O   0  0  0  0  0  0
    1.4430   -5.2560    5.6010 C   0  0  2  0  0  0
    1.4500   -6.2230    6.6390 O   0  0  0  0  0  0
    0.5010   -5.7780    4.5110 C   0  0  0  0  0  0
   -0.6060   -6.4440    5.0950 O   0  0  0  0  0  0
    3.3330   -4.3410    2.8340 C   0  0  2  0  0  0
    4.3740   -3.3070    2.3820 C   0  0  2  0  0  0
    5.4370   -3.2530    3.3210 O   0  0  0  0  0  0
    3.7240   -1.9250    2.2990 C   0  0  1  0  0  0
    4.6890   -1.0030    1.8150 O   0  0  0  0  0  0
    2.4800   -1.9850    1.4180 C   0  0  2  0  0  0
    1.9130   -0.6950    1.4790 O   0  0  0  0  0  0
    1.5160   -3.0460    1.9690 C   0  0  2  0  0  0
    2.1830   -4.2970    2.0100 O   0  0  0  0  0  0
    0.2780   -3.2360    1.0870 C   0  0  0  0  0  0
   -0.2780   -4.5250    1.2940 O   0  0  0  0  0  0
    2.1840   -0.4980   -0.5720 H   0  0  0  0  0  0
    2.0850    1.9130   -0.5580 H   0  0  0  0  0  0
    3.7730    2.3060    1.0370 H   0  0  0  0  0  0
    1.5270    1.6620    2.4390 H   0  0  0  0  0  0
    1.1920    3.9880    2.0930 H   0  0  0  0  0  0
   -0.3250    2.5530    0.1910 H   0  0  0  0  0  0
   -0.3780    0.0550    1.9620 H   0  0  0  0  0  0
   -2.3020    1.1630   -0.1190 H   0  0  0  0  0  0
   -2.6500    0.4470    1.4440 H   0  0  0  0  0  0
   -1.4630   -1.0010   -0.6750 H   0  0  0  0  0  0
   -1.5400    4.1050    0.9060 H   0  0  0  0  0  0
   -2.0240    5.7150    2.6430 H   0  0  0  0  0  0
    0.1280    5.8170    3.5940 H   0  0  0  0  0  0
   -1.0420    3.5830    4.6060 H   0  0  0  0  0  0
   -1.9810    5.2980    6.0370 H   0  0  0  0  0  0
   -3.8590    4.6560    4.2160 H   0  0  0  0  0  0
   -2.6960    1.8930    3.5580 H   0  0  0  0  0  0
   -5.5040    3.0610    3.3870 H   0  0  0  0  0  0
   -4.9860    1.5080    4.0200 H   0  0  0  0  0  0
   -4.6830    2.2320    1.3040 H   0  0  0  0  0  0
   -5.1600    4.2140    5.8280 H   0  0  0  0  0  0
   -5.0070    4.6230    8.2130 H   0  0  0  0  0  0
   -2.9680    5.7850    8.2500 H   0  0  0  0  0  0
   -2.3410    3.1290    8.0790 H   0  0  0  0  0  0
   -2.5790    3.4060   10.4150 H   0  0  0  0  0  0
   -4.9760    2.2830    9.3530 H   0  0  0  0  0  0
   -3.4680    1.1780    6.9280 H   0  0  0  0  0  0
   -5.9610    0.2650    8.4210 H   0  0  0  0  0  0
   -4.6180   -0.6910    7.8230 H   0  0  0  0  0  0
   -6.3610    0.7410    6.1200 H   0  0  0  0  0  0
   -4.4980    1.3650   11.1800 H   0  0  0  0  0  0
   -2.8700    0.6640   12.8200 H   0  0  0  0  0  0
   -1.2190    2.2800   12.3460 H   0  0  0  0  0  0
   -0.9560    0.3310   10.4580 H   0  0  0  0  0  0
    0.3390   -0.5780   12.2190 H   0  0  0  0  0  0
   -2.2320   -1.7890   12.2370 H   0  0  0  0  0  0
   -2.6490   -1.1370    9.2750 H   0  0  0  0  0  0
   -3.6990   -3.3580   11.0750 H   0  0  0  0  0  0
   -3.0700   -3.4630    9.4400 H   0  0  0  0  0  0
   -5.4200   -2.0310   10.0870 H   0  0  0  0  0  0
   -0.7730   -3.2560   12.6000 H   0  0  0  0  0  0
    1.4920   -4.0660   12.3540 H   0  0  0  0  0  0
    2.5490   -1.9730   12.1160 H   0  0  0  0  0  0
    1.5110   -2.5800    9.6800 H   0  0  0  0  0  0
    3.5640   -3.8650    9.6360 H   0  0  0  0  0  0
    1.5610   -5.5760   10.1870 H   0  0  0  0  0  0
   -0.6580   -3.8160    9.0050 H   0  0  0  0  0  0
   -0.3920   -6.8210    9.4220 H   0  0  0  0  0  0
   -0.9600   -5.9440    8.0120 H   0  0  0  0  0  0
   -2.2960   -5.8650   10.5020 H   0  0  0  0  0  0
    2.1620   -6.7050    8.4960 H   0  0  0  0  0  0
    4.1200   -6.6100    7.0720 H   0  0  0  0  0  0
    5.2890   -4.9000    8.1780 H   0  0  0  0  0  0
    3.4060   -3.6680    6.6330 H   0  0  0  0  0  0
    5.1620   -3.9660    5.0600 H   0  0  0  0  0  0
    3.2510   -6.0040    4.6890 H   0  0  0  0  0  0
    1.0470   -4.3150    5.9850 H   0  0  0  0  0  0
    1.0160   -6.4600    3.8280 H   0  0  0  0  0  0
    0.1270   -4.9500    3.9080 H   0  0  0  0  0  0
   -0.2650   -7.0580    5.7480 H   0  0  0  0  0  0
    3.7790   -5.3350    2.7760 H   0  0  0  0  0  0
    4.7540   -3.6100    1.4000 H   0  0  0  0  0  0
    5.9900   -2.5080    3.0760 H   0  0  0  0  0  0
    3.4240   -1.6230    3.3080 H   0  0  0  0  0  0
    4.2410   -0.1770    1.6050 H   0  0  0  0  0  0
    2.7720   -2.2550    0.4020 H   0  0  0  0  0  0
    1.1910   -2.7750    2.9740 H   0  0  0  0  0  0
    0.5170   -3.1110    0.0260 H   0  0  0  0  0  0
   -0.4780   -2.4900    1.3320 H   0  0  0  0  0  0
    0.4360   -5.1630    1.2430 H   0  0  0  0  0  0
  1  9  1  0  0  0
  1 73  1  0  0  0
  1  2  1  0  0  0
  1 78  1  0  0  0
  2  3  1  0  0  0
  2  4  1  0  0  0
  2 79  1  0  0  0
  3 80  1  0  0  0
  4  6  1  0  0  0
  4  5  1  0  0  0
  4 81  1  0  0  0
  5 82  1  0  0  0
  6 83  1  0  0  0
  6  8  1  0  0  0
  6  7  1  0  0  0
  7 12  1  0  0  0
  8 10  1  0  0  0
  8  9  1  0  0  0
  8 84  1  0  0  0
 10 86  1  0  0  0
 10 85  1  0  0  0
 10 11  1  0  0  0
 11 87  1  0  0  0
 12 13  1  0  0  0
 12 20  1  0  0  0
 12 88  1  0  0  0
 13 14  1  0  0  0
 13 89  1  0  0  0
 13 15  1  0  0  0
 14 90  1  0  0  0
 15 91  1  0  0  0
 15 17  1  0  0  0
 15 16  1  0  0  0
 16 92  1  0  0  0
 17 93  1  0  0  0
 17 19  1  0  0  0
 17 18  1  0  0  0
 18 23  1  0  0  0
 19 20  1  0  0  0
 19 21  1  0  0  0
 19 94  1  0  0  0
 21 95  1  0  0  0
 21 22  1  0  0  0
 21 96  1  0  0  0
 22 97  1  0  0  0
 23 98  1  0  0  0
 23 31  1  0  0  0
 23 24  1  0  0  0
 24 99  1  0  0  0
 24 25  1  0  0  0
 24 26  1  0  0  0
 25100  1  0  0  0
 26101  1  0  0  0
 26 28  1  0  0  0
 26 27  1  0  0  0
 27102  1  0  0  0
 28 30  1  0  0  0
 28103  1  0  0  0
 28 29  1  0  0  0
 29 34  1  0  0  0
 30 32  1  0  0  0
 30 31  1  0  0  0
 30104  1  0  0  0
 32105  1  0  0  0
 32106  1  0  0  0
 32 33  1  0  0  0
 33107  1  0  0  0
 34108  1  0  0  0
 34 35  1  0  0  0
 34 42  1  0  0  0
 35 36  1  0  0  0
 35 37  1  0  0  0
 35109  1  0  0  0
 36110  1  0  0  0
 37 39  1  0  0  0
 37111  1  0  0  0
 37 38  1  0  0  0
 38112  1  0  0  0
 39113  1  0  0  0
 39 40  1  0  0  0
 39 41  1  0  0  0
 40 45  1  0  0  0
 41114  1  0  0  0
 41 43  1  0  0  0
 41 42  1  0  0  0
 43 44  1  0  0  0
 43116  1  0  0  0
 43115  1  0  0  0
 44117  1  0  0  0
 45 46  1  0  0  0
 45 53  1  0  0  0
 45118  1  0  0  0
 46 47  1  0  0  0
 46119  1  0  0  0
 46 48  1  0  0  0
 47120  1  0  0  0
 48 49  1  0  0  0
 48121  1  0  0  0
 48 50  1  0  0  0
 49122  1  0  0  0
 50 52  1  0  0  0
 50123  1  0  0  0
 50 51  1  0  0  0
 51 56  1  0  0  0
 52124  1  0  0  0
 52 54  1  0  0  0
 52 53  1  0  0  0
 54125  1  0  0  0
 54 55  1  0  0  0
 54126  1  0  0  0
 55127  1  0  0  0
 56128  1  0  0  0
 56 57  1  0  0  0
 56 64  1  0  0  0
 57 58  1  0  0  0
 57 59  1  0  0  0
 57129  1  0  0  0
 58130  1  0  0  0
 59 60  1  0  0  0
 59131  1  0  0  0
 59 61  1  0  0  0
 60132  1  0  0  0
 61 62  1  0  0  0
 61133  1  0  0  0
 61 63  1  0  0  0
 62 67  1  0  0  0
 63134  1  0  0  0
 63 64  1  0  0  0
 63 65  1  0  0  0
 65135  1  0  0  0
 65 66  1  0  0  0
 65136  1  0  0  0
 66137  1  0  0  0
 67 75  1  0  0  0
 67 68  1  0  0  0
 67138  1  0  0  0
 68 70  1  0  0  0
 68 69  1  0  0  0
 68139  1  0  0  0
 69140  1  0  0  0
 70 71  1  0  0  0
 70141  1  0  0  0
 70 72  1  0  0  0
 71142  1  0  0  0
 72143  1  0  0  0
 72 73  1  0  0  0
 72 74  1  0  0  0
 74144  1  0  0  0
 74 75  1  0  0  0
 74 76  1  0  0  0
 76145  1  0  0  0
 76146  1  0  0  0
 76 77  1  0  0  0
 77147  1  0  0  0
M  END

$$$$
g-cyclodex
  DSViewer          3D                             0

168176  0  0  0  0  0  0  0  0999 V2000
    1.5340    0.6110    0.2880 C   0  0  1  0  0  0
    1.9460    1.9990   -0.2150 C   0  0  1  0  0  0
    1.5940    2.1490   -1.6960 C   0  0  2  0  0  0
    2.1820    0.9880   -2.4990 C   0  0  1  0  0  0
    1.7070   -0.3440   -1.8990 C   0  0  1  0  0  0
    2.3440   -1.5630   -2.5710 C   0  0  0  0  0  0
    0.1250    0.5240    0.2420 O   0  0  0  0  0  0
    1.2650    3.0010    0.5250 O   0  0  0  0  0  0
    2.0610    3.4230   -2.1100 O   0  0  0  0  0  0
    2.0770   -0.4060   -0.5310 O   0  0  0  0  0  0
    2.2070   -2.7050   -1.7410 O   0  0  0  0  0  0
    1.9100    0.4900    1.3050 H   0  0  0  0  0  0
    3.0280    2.1020   -0.0730 H   0  0  0  0  0  0
    0.5060    2.1300   -1.8040 H   0  0  0  0  0  0
    3.2710    1.0500   -2.4600 H   0  0  0  0  0  0
    0.6230   -0.4220   -1.9850 H   0  0  0  0  0  0
    3.4040   -1.3930   -2.7820 H   0  0  0  0  0  0
    1.8600   -1.7680   -3.5260 H   0  0  0  0  0  0
    1.4390    3.8380    0.0870 H   0  0  0  0  0  0
    2.2130    3.3920   -3.0590 H   0  0  0  0  0  0
    2.4870   -2.4590   -0.8560 H   0  0  0  0  0  0
    2.6100    0.8840   -4.8700 C   0  0  1  0  0  0
    2.9430    2.2210   -5.5530 C   0  0  1  0  0  0
    1.7080    2.7600   -6.2760 C   0  0  2  0  0  0
    1.1600    1.7000   -7.2260 C   0  0  1  0  0  0
    0.8280    0.4380   -6.4190 C   0  0  1  0  0  0
    0.3370   -0.7130   -7.3020 C   0  0  0  0  0  0
    1.7020    1.1410   -3.8200 O   0  0  0  0  0  0
    3.3360    3.1840   -4.5890 O   0  0  0  0  0  0
    2.0750    3.9610   -6.9380 O   0  0  0  0  0  0
    2.0080   -0.0200   -5.7780 O   0  0  0  0  0  0
    0.4300   -1.9430   -6.6030 O   0  0  0  0  0  0
    3.5270    0.4280   -4.4950 H   0  0  0  0  0  0
    3.7560    2.0450   -6.2670 H   0  0  0  0  0  0
    0.9420    2.9850   -5.5250 H   0  0  0  0  0  0
    1.9120    1.4490   -7.9770 H   0  0  0  0  0  0
    0.0690    0.6590   -5.6670 H   0  0  0  0  0  0
    0.9170   -0.7780   -8.2280 H   0  0  0  0  0  0
   -0.7030   -0.5580   -7.5930 H   0  0  0  0  0  0
    3.4350    4.0210   -5.0500 H   0  0  0  0  0  0
    1.3210    4.2680   -7.4540 H   0  0  0  0  0  0
    1.2980   -1.9830   -6.1960 H   0  0  0  0  0  0
    0.0350    2.4970   -9.2020 C   0  0  1  0  0  0
   -0.6090    3.8650   -9.4610 C   0  0  1  0  0  0
   -2.0910    3.8170   -9.0880 C   0  0  2  0  0  0
   -2.7750    2.6680   -9.8270 C   0  0  1  0  0  0
   -2.0480    1.3560   -9.4970 C   0  0  1  0  0  0
   -2.6020    0.1550  -10.2670 C   0  0  0  0  0  0
    0.0000    2.2480   -7.8120 O   0  0  0  0  0  0
    0.0300    4.8580   -8.6740 O   0  0  0  0  0  0
   -2.6570    5.0810   -9.3960 O   0  0  0  0  0  0
   -0.6820    1.4700   -9.8610 O   0  0  0  0  0  0
   -1.6630   -0.9070  -10.2560 O   0  0  0  0  0  0
    1.0590    2.5200   -9.5800 H   0  0  0  0  0  0
   -0.4930    4.1010  -10.5240 H   0  0  0  0  0  0
   -2.1730    3.6430   -8.0090 H   0  0  0  0  0  0
   -2.7270    2.8620  -10.8990 H   0  0  0  0  0  0
   -2.1240    1.1500   -8.4290 H   0  0  0  0  0  0
   -2.8400    0.4200  -11.3020 H   0  0  0  0  0  0
   -3.5270   -0.1950   -9.8080 H   0  0  0  0  0  0
   -0.4940    5.6590   -8.7530 H   0  0  0  0  0  0
   -3.6130    5.0120   -9.3160 H   0  0  0  0  0  0
   -0.8070   -0.5430  -10.4930 H   0  0  0  0  0  0
   -5.1400    2.5010  -10.3140 C   0  0  1  0  0  0
   -6.0110    3.7690  -10.2270 C   0  0  1  0  0  0
   -6.6810    3.8340   -8.8530 C   0  0  2  0  0  0
   -7.4640    2.5470   -8.6050 C   0  0  1  0  0  0
   -6.5140    1.3480   -8.7200 C   0  0  1  0  0  0
   -7.2530    0.0130   -8.5840 C   0  0  0  0  0  0
   -4.1070    2.6370   -9.3610 O   0  0  0  0  0  0
   -5.2480    4.9640  -10.3010 O   0  0  0  0  0  0
   -7.5090    4.9840   -8.7420 O   0  0  0  0  0  0
   -5.9020    1.3510  -10.0000 O   0  0  0  0  0  0
   -6.4570   -1.0460   -9.0900 O   0  0  0  0  0  0
   -4.7440    2.3790  -11.3240 H   0  0  0  0  0  0
   -6.7800    3.7550  -11.0070 H   0  0  0  0  0  0
   -5.9100    3.8910   -8.0760 H   0  0  0  0  0  0
   -8.2570    2.4360   -9.3470 H   0  0  0  0  0  0
   -5.7420    1.4050   -7.9510 H   0  0  0  0  0  0
   -8.2100    0.0320   -9.1150 H   0  0  0  0  0  0
   -7.4820   -0.1920   -7.5370 H   0  0  0  0  0  0
   -4.7620    4.9660  -11.1260 H   0  0  0  0  0  0
   -7.0070    5.7190   -9.1060 H   0  0  0  0  0  0
   -6.1280   -0.7780   -9.9510 H   0  0  0  0  0  0
   -9.2800    3.2040   -7.1940 C   0  0  1  0  0  0
   -9.2560    4.1890   -6.0070 C   0  0  1  0  0  0
   -9.0590    3.4140   -4.7040 C   0  0  2  0  0  0
  -10.1100    2.3200   -4.5750 C   0  0  1  0  0  0
  -10.0350    1.4040   -5.8050 C   0  0  1  0  0  0
  -11.1200    0.3250   -5.8190 C   0  0  0  0  0  0
   -8.0070    2.6040   -7.3050 O   0  0  0  0  0  0
   -8.1800    5.1110   -6.0340 O   0  0  0  0  0  0
   -9.1130    4.2790   -3.5780 O   0  0  0  0  0  0
  -10.2300    2.1790   -6.9760 O   0  0  0  0  0  0
  -11.2220   -0.2510   -7.1110 O   0  0  0  0  0  0
   -9.5540    3.7350   -8.1080 H   0  0  0  0  0  0
  -10.2000    4.7400   -5.9710 H   0  0  0  0  0  0
   -8.0800    2.9210   -4.7210 H   0  0  0  0  0  0
  -11.0960    2.7840   -4.5090 H   0  0  0  0  0  0
   -9.0600    0.9180   -5.8490 H   0  0  0  0  0  0
  -12.0920    0.7350   -5.5280 H   0  0  0  0  0  0
  -10.8810   -0.4640   -5.1060 H   0  0  0  0  0  0
   -8.0110    5.3400   -6.9510 H   0  0  0  0  0  0
   -8.5500    5.0300   -3.7830 H   0  0  0  0  0  0
  -11.2270    0.4640   -7.7520 H   0  0  0  0  0  0
  -10.8540    1.2430   -2.5420 C   0  0  1  0  0  0
  -10.6830    2.0250   -1.2280 C   0  0  1  0  0  0
   -9.3620    1.6210   -0.5590 C   0  0  2  0  0  0
   -9.3270    0.1100   -0.3700 C   0  0  1  0  0  0
   -9.5450   -0.5900   -1.7220 C   0  0  1  0  0  0
   -9.6600   -2.1120   -1.5890 C   0  0  0  0  0  0
   -9.7940    1.6080   -3.3980 O   0  0  0  0  0  0
  -10.6780    3.4270   -1.4150 O   0  0  0  0  0  0
   -9.2040    2.2600    0.6990 O   0  0  0  0  0  0
  -10.7650   -0.1470   -2.2960 O   0  0  0  0  0  0
  -10.2370   -2.6690   -2.7580 O   0  0  0  0  0  0
  -11.8260    1.4560   -2.9880 H   0  0  0  0  0  0
  -11.5170    1.7830   -0.5660 H   0  0  0  0  0  0
   -8.5100    1.8820   -1.1960 H   0  0  0  0  0  0
  -10.1200   -0.1720    0.3260 H   0  0  0  0  0  0
   -8.7210   -0.3590   -2.3980 H   0  0  0  0  0  0
  -10.2660   -2.3900   -0.7210 H   0  0  0  0  0  0
   -8.6750   -2.5570   -1.4420 H   0  0  0  0  0  0
  -10.0600    3.6290   -2.1240 H   0  0  0  0  0  0
   -9.4090    3.1890    0.5700 H   0  0  0  0  0  0
  -11.0110   -2.1470   -2.9790 H   0  0  0  0  0  0
   -7.9760   -1.1780    1.1610 C   0  0  1  0  0  0
   -7.6020   -0.4820    2.4850 C   0  0  1  0  0  0
   -6.1820    0.1010    2.3900 C   0  0  2  0  0  0
   -5.2150   -0.9980    1.9470 C   0  0  1  0  0  0
   -5.6820   -1.5900    0.6110 C   0  0  1  0  0  0
   -4.8060   -2.7570    0.1430 C   0  0  0  0  0  0
   -8.0520   -0.1890    0.1590 O   0  0  0  0  0  0
   -8.5470    0.5230    2.8090 O   0  0  0  0  0  0
   -5.7820    0.6440    3.6410 O   0  0  0  0  0  0
   -6.9880   -2.1150    0.7790 O   0  0  0  0  0  0
   -5.4890   -3.5190   -0.8390 O   0  0  0  0  0  0
   -8.9250   -1.7060    1.2730 H   0  0  0  0  0  0
   -7.6270   -1.2230    3.2850 H   0  0  0  0  0  0
   -6.1710    0.8920    1.6300 H   0  0  0  0  0  0
   -5.2040   -1.7960    2.6910 H   0  0  0  0  0  0
   -5.6910   -0.8210   -0.1620 H   0  0  0  0  0  0
   -4.5330   -3.4070    0.9800 H   0  0  0  0  0  0
   -3.8750   -2.3900   -0.2900 H   0  0  0  0  0  0
   -8.5910    1.1390    2.0730 H   0  0  0  0  0  0
   -4.8760    0.9640    3.5660 H   0  0  0  0  0  0
   -6.3770   -3.6840   -0.5160 H   0  0  0  0  0  0
   -2.9380   -0.8210    2.7100 C   0  0  1  0  0  0
   -2.1470    0.4130    3.1690 C   0  0  1  0  0  0
   -1.3800    1.0060    1.9870 C   0  0  2  0  0  0
   -0.5170   -0.0770    1.3450 C   0  0  1  0  0  0
   -1.4200   -1.2350    0.9020 C   0  0  1  0  0  0
   -0.6360   -2.4090    0.3090 C   0  0  0  0  0  0
   -3.9470   -0.3900    1.8190 O   0  0  0  0  0  0
   -3.0400    1.3910    3.6800 O   0  0  0  0  0  0
   -0.6170    2.1080    2.4560 O   0  0  0  0  0  0
   -2.1060   -1.7440    2.0350 O   0  0  0  0  0  0
   -1.4290   -3.5840    0.3380 O   0  0  0  0  0  0
   -3.3640   -1.3010    3.5920 H   0  0  0  0  0  0
   -1.4500    0.0990    3.9540 H   0  0  0  0  0  0
   -2.1080    1.3630    1.2490 H   0  0  0  0  0  0
    0.2020   -0.4550    2.0740 H   0  0  0  0  0  0
   -2.1440   -0.8830    0.1650 H   0  0  0  0  0  0
    0.2940   -2.5840    0.8590 H   0  0  0  0  0  0
   -0.3580   -2.2020   -0.7260 H   0  0  0  0  0  0
   -2.5300    2.1930    3.8150 H   0  0  0  0  0  0
   -0.0620    2.4230    1.7340 H   0  0  0  0  0  0
   -1.7950   -3.6680    1.2200 H   0  0  0  0  0  0
  1  7  1  0  0  0
  1 12  1  0  0  0
  1  2  1  0  0  0
  1 10  1  0  0  0
  2 13  1  0  0  0
  2  3  1  0  0  0
  2  8  1  0  0  0
  3 14  1  0  0  0
  3  9  1  0  0  0
  3  4  1  0  0  0
  4 15  1  0  0  0
  4  5  1  0  0  0
  5 16  1  0  0  0
  5  6  1  0  0  0
  5 10  1  0  0  0
  6 17  1  0  0  0
  6 18  1  0  0  0
  6 11  1  0  0  0
  8 19  1  0  0  0
  9 20  1  0  0  0
 11 21  1  0  0  0
 22 33  1  0  0  0
 22 28  1  0  0  0
 22 23  1  0  0  0
 22 31  1  0  0  0
 23 24  1  0  0  0
 23 34  1  0  0  0
 23 29  1  0  0  0
 24 35  1  0  0  0
 24 30  1  0  0  0
 24 25  1  0  0  0
 25 36  1  0  0  0
 25 26  1  0  0  0
 26 37  1  0  0  0
 26 31  1  0  0  0
 26 27  1  0  0  0
 27 38  1  0  0  0
 27 39  1  0  0  0
 27 32  1  0  0  0
 29 40  1  0  0  0
 30 41  1  0  0  0
 32 42  1  0  0  0
 43 54  1  0  0  0
 43 44  1  0  0  0
 43 52  1  0  0  0
 43 49  1  0  0  0
 44 55  1  0  0  0
 44 45  1  0  0  0
 44 50  1  0  0  0
 45 51  1  0  0  0
 45 46  1  0  0  0
 45 56  1  0  0  0
 46 47  1  0  0  0
 46 57  1  0  0  0
 47 48  1  0  0  0
 47 52  1  0  0  0
 47 58  1  0  0  0
 48 60  1  0  0  0
 48 53  1  0  0  0
 48 59  1  0  0  0
 50 61  1  0  0  0
 51 62  1  0  0  0
 53 63  1  0  0  0
 64 70  1  0  0  0
 64 65  1  0  0  0
 64 73  1  0  0  0
 64 75  1  0  0  0
 65 71  1  0  0  0
 65 76  1  0  0  0
 65 66  1  0  0  0
 66 77  1  0  0  0
 66 72  1  0  0  0
 66 67  1  0  0  0
 67 68  1  0  0  0
 67 78  1  0  0  0
 68 79  1  0  0  0
 68 69  1  0  0  0
 68 73  1  0  0  0
 69 81  1  0  0  0
 69 80  1  0  0  0
 69 74  1  0  0  0
 71 82  1  0  0  0
 72 83  1  0  0  0
 74 84  1  0  0  0
 85 91  1  0  0  0
 85 96  1  0  0  0
 85 86  1  0  0  0
 85 94  1  0  0  0
 86 97  1  0  0  0
 86 92  1  0  0  0
 86 87  1  0  0  0
 87 88  1  0  0  0
 87 98  1  0  0  0
 87 93  1  0  0  0
 88 99  1  0  0  0
 88 89  1  0  0  0
 89100  1  0  0  0
 89 90  1  0  0  0
 89 94  1  0  0  0
 90101  1  0  0  0
 90 95  1  0  0  0
 90102  1  0  0  0
 92103  1  0  0  0
 93104  1  0  0  0
 95105  1  0  0  0
106117  1  0  0  0
106112  1  0  0  0
106115  1  0  0  0
106107  1  0  0  0
107113  1  0  0  0
107118  1  0  0  0
107108  1  0  0  0
108109  1  0  0  0
108119  1  0  0  0
108114  1  0  0  0
109110  1  0  0  0
109120  1  0  0  0
110111  1  0  0  0
110115  1  0  0  0
110121  1  0  0  0
111122  1  0  0  0
111123  1  0  0  0
111116  1  0  0  0
113124  1  0  0  0
114125  1  0  0  0
116126  1  0  0  0
127133  1  0  0  0
127138  1  0  0  0
127136  1  0  0  0
127128  1  0  0  0
128139  1  0  0  0
128134  1  0  0  0
128129  1  0  0  0
129130  1  0  0  0
129140  1  0  0  0
129135  1  0  0  0
130141  1  0  0  0
130131  1  0  0  0
131136  1  0  0  0
131132  1  0  0  0
131142  1  0  0  0
132143  1  0  0  0
132144  1  0  0  0
132137  1  0  0  0
134145  1  0  0  0
135146  1  0  0  0
137147  1  0  0  0
148157  1  0  0  0
148154  1  0  0  0
148149  1  0  0  0
148159  1  0  0  0
149150  1  0  0  0
149155  1  0  0  0
149160  1  0  0  0
150156  1  0  0  0
150161  1  0  0  0
150151  1  0  0  0
151152  1  0  0  0
151162  1  0  0  0
152163  1  0  0  0
152153  1  0  0  0
152157  1  0  0  0
153164  1  0  0  0
153158  1  0  0  0
153165  1  0  0  0
155166  1  0  0  0
156167  1  0  0  0
158168  1  0  0  0
  4 28  1  0  0  0
 25 49  1  0  0  0
 46 70  1  0  0  0
 67 91  1  0  0  0
 88112  1  0  0  0
109133  1  0  0  0
130154  1  0  0  0
  7151  1  0  0  0
M  END

$$$$
