Molecule
  DSViewer          3D                             0

168176  0  0  0  0  0  0  0  0999 V2000
    1.5340    0.6110    0.2880 C   0  0  1  0  0  0
    1.9460    1.9990   -0.2150 C   0  0  1  0  0  0
    1.5940    2.1490   -1.6960 C   0  0  2  0  0  0
    2.1820    0.9880   -2.4990 C   0  0  1  0  0  0
    1.7070   -0.3440   -1.8990 C   0  0  1  0  0  0
    2.3440   -1.5630   -2.5710 C   0  0
    0.1250    0.5240    0.2420 O   0  0
    1.2650    3.0010    0.5250 O   0  0
    2.0610    3.4230   -2.1100 O   0  0
    2.0770   -0.4060   -0.5310 O   0  0
    2.2070   -2.7050   -1.7410 O   0  0
    1.9100    0.4900    1.3050 H   0  0
    3.0280    2.1020   -0.0730 H   0  0
    0.5060    2.1300   -1.8040 H   0  0
    3.2710    1.0500   -2.4600 H   0  0
    0.6230   -0.4220   -1.9850 H   0  0
    3.4040   -1.3930   -2.7820 H   0  0
    1.8600   -1.7680   -3.5260 H   0  0
    1.4390    3.8380    0.0870 H   0  0
    2.2130    3.3920   -3.0590 H   0  0
    2.4870   -2.4590   -0.8560 H   0  0
    2.6100    0.8840   -4.8700 C   0  0  1  0  0  0
    2.9430    2.2210   -5.5530 C   0  0  1  0  0  0
    1.7080    2.7600   -6.2760 C   0  0  2  0  0  0
    1.1600    1.7000   -7.2260 C   0  0  1  0  0  0
    0.8280    0.4380   -6.4190 C   0  0  1  0  0  0
    0.3370   -0.7130   -7.3020 C   0  0
    1.7020    1.1410   -3.8200 O   0  0
    3.3360    3.1840   -4.5890 O   0  0
    2.0750    3.9610   -6.9380 O   0  0
    2.0080   -0.0200   -5.7780 O   0  0
    0.4300   -1.9430   -6.6030 O   0  0
    3.5270    0.4280   -4.4950 H   0  0
    3.7560    2.0450   -6.2670 H   0  0
    0.9420    2.9850   -5.5250 H   0  0
    1.9120    1.4490   -7.9770 H   0  0
    0.0690    0.6590   -5.6670 H   0  0
    0.9170   -0.7780   -8.2280 H   0  0
   -0.7030   -0.5580   -7.5930 H   0  0
    3.4350    4.0210   -5.0500 H   0  0
    1.3210    4.2680   -7.4540 H   0  0
    1.2980   -1.9830   -6.1960 H   0  0
    0.0350    2.4970   -9.2020 C   0  0  1  0  0  0
   -0.6090    3.8650   -9.4610 C   0  0  1  0  0  0
   -2.0910    3.8170   -9.0880 C   0  0  2  0  0  0
   -2.7750    2.6680   -9.8270 C   0  0  1  0  0  0
   -2.0480    1.3560   -9.4970 C   0  0  1  0  0  0
   -2.6020    0.1550  -10.2670 C   0  0
    0.0000    2.2480   -7.8120 O   0  0
    0.0300    4.8580   -8.6740 O   0  0
   -2.6570    5.0810   -9.3960 O   0  0
   -0.6820    1.4700   -9.8610 O   0  0
   -1.6630   -0.9070  -10.2560 O   0  0
    1.0590    2.5200   -9.5800 H   0  0
   -0.4930    4.1010  -10.5240 H   0  0
   -2.1730    3.6430   -8.0090 H   0  0
   -2.7270    2.8620  -10.8990 H   0  0
   -2.1240    1.1500   -8.4290 H   0  0
   -2.8400    0.4200  -11.3020 H   0  0
   -3.5270   -0.1950   -9.8080 H   0  0
   -0.4940    5.6590   -8.7530 H   0  0
   -3.6130    5.0120   -9.3160 H   0  0
   -0.8070   -0.5430  -10.4930 H   0  0
   -5.1400    2.5010  -10.3140 C   0  0  1  0  0  0
   -6.0110    3.7690  -10.2270 C   0  0  1  0  0  0
   -6.6810    3.8340   -8.8530 C   0  0  2  0  0  0
   -7.4640    2.5470   -8.6050 C   0  0  1  0  0  0
   -6.5140    1.3480   -8.7200 C   0  0  1  0  0  0
   -7.2530    0.0130   -8.5840 C   0  0
   -4.1070    2.6370   -9.3610 O   0  0
   -5.2480    4.9640  -10.3010 O   0  0
   -7.5090    4.9840   -8.7420 O   0  0
   -5.9020    1.3510  -10.0000 O   0  0
   -6.4570   -1.0460   -9.0900 O   0  0
   -4.7440    2.3790  -11.3240 H   0  0
   -6.7800    3.7550  -11.0070 H   0  0
   -5.9100    3.8910   -8.0760 H   0  0
   -8.2570    2.4360   -9.3470 H   0  0
   -5.7420    1.4050   -7.9510 H   0  0
   -8.2100    0.0320   -9.1150 H   0  0
   -7.4820   -0.1920   -7.5370 H   0  0
   -4.7620    4.9660  -11.1260 H   0  0
   -7.0070    5.7190   -9.1060 H   0  0
   -6.1280   -0.7780   -9.9510 H   0  0
   -9.2800    3.2040   -7.1940 C   0  0  1  0  0  0
   -9.2560    4.1890   -6.0070 C   0  0  1  0  0  0
   -9.0590    3.4140   -4.7040 C   0  0  2  0  0  0
  -10.1100    2.3200   -4.5750 C   0  0  1  0  0  0
  -10.0350    1.4040   -5.8050 C   0  0  1  0  0  0
  -11.1200    0.3250   -5.8190 C   0  0
   -8.0070    2.6040   -7.3050 O   0  0
   -8.1800    5.1110   -6.0340 O   0  0
   -9.1130    4.2790   -3.5780 O   0  0
  -10.2300    2.1790   -6.9760 O   0  0
  -11.2220   -0.2510   -7.1110 O   0  0
   -9.5540    3.7350   -8.1080 H   0  0
  -10.2000    4.7400   -5.9710 H   0  0
   -8.0800    2.9210   -4.7210 H   0  0
  -11.0960    2.7840   -4.5090 H   0  0
   -9.0600    0.9180   -5.8490 H   0  0
  -12.0920    0.7350   -5.5280 H   0  0
  -10.8810   -0.4640   -5.1060 H   0  0
   -8.0110    5.3400   -6.9510 H   0  0
   -8.5500    5.0300   -3.7830 H   0  0
  -11.2270    0.4640   -7.7520 H   0  0
  -10.8540    1.2430   -2.5420 C   0  0  1  0  0  0
  -10.6830    2.0250   -1.2280 C   0  0  1  0  0  0
   -9.3620    1.6210   -0.5590 C   0  0  2  0  0  0
   -9.3270    0.1100   -0.3700 C   0  0  1  0  0  0
   -9.5450   -0.5900   -1.7220 C   0  0  1  0  0  0
   -9.6600   -2.1120   -1.5890 C   0  0
   -9.7940    1.6080   -3.3980 O   0  0
  -10.6780    3.4270   -1.4150 O   0  0
   -9.2040    2.2600    0.6990 O   0  0
  -10.7650   -0.1470   -2.2960 O   0  0
  -10.2370   -2.6690   -2.7580 O   0  0
  -11.8260    1.4560   -2.9880 H   0  0
  -11.5170    1.7830   -0.5660 H   0  0
   -8.5100    1.8820   -1.1960 H   0  0
  -10.1200   -0.1720    0.3260 H   0  0
   -8.7210   -0.3590   -2.3980 H   0  0
  -10.2660   -2.3900   -0.7210 H   0  0
   -8.6750   -2.5570   -1.4420 H   0  0
  -10.0600    3.6290   -2.1240 H   0  0
   -9.4090    3.1890    0.5700 H   0  0
  -11.0110   -2.1470   -2.9790 H   0  0
   -7.9760   -1.1780    1.1610 C   0  0  1  0  0  0
   -7.6020   -0.4820    2.4850 C   0  0  1  0  0  0
   -6.1820    0.1010    2.3900 C   0  0  2  0  0  0
   -5.2150   -0.9980    1.9470 C   0  0  1  0  0  0
   -5.6820   -1.5900    0.6110 C   0  0  1  0  0  0
   -4.8060   -2.7570    0.1430 C   0  0
   -8.0520   -0.1890    0.1590 O   0  0
   -8.5470    0.5230    2.8090 O   0  0
   -5.7820    0.6440    3.6410 O   0  0
   -6.9880   -2.1150    0.7790 O   0  0
   -5.4890   -3.5190   -0.8390 O   0  0
   -8.9250   -1.7060    1.2730 H   0  0
   -7.6270   -1.2230    3.2850 H   0  0
   -6.1710    0.8920    1.6300 H   0  0
   -5.2040   -1.7960    2.6910 H   0  0
   -5.6910   -0.8210   -0.1620 H   0  0
   -4.5330   -3.4070    0.9800 H   0  0
   -3.8750   -2.3900   -0.2900 H   0  0
   -8.5910    1.1390    2.0730 H   0  0
   -4.8760    0.9640    3.5660 H   0  0
   -6.3770   -3.6840   -0.5160 H   0  0
   -2.9380   -0.8210    2.7100 C   0  0  1  0  0  0
   -2.1470    0.4130    3.1690 C   0  0  1  0  0  0
   -1.3800    1.0060    1.9870 C   0  0  2  0  0  0
   -0.5170   -0.0770    1.3450 C   0  0  1  0  0  0
   -1.4200   -1.2350    0.9020 C   0  0  1  0  0  0
   -0.6360   -2.4090    0.3090 C   0  0
   -3.9470   -0.3900    1.8190 O   0  0
   -3.0400    1.3910    3.6800 O   0  0
   -0.6170    2.1080    2.4560 O   0  0
   -2.1060   -1.7440    2.0350 O   0  0
   -1.4290   -3.5840    0.3380 O   0  0
   -3.3640   -1.3010    3.5920 H   0  0
   -1.4500    0.0990    3.9540 H   0  0
   -2.1080    1.3630    1.2490 H   0  0
    0.2020   -0.4550    2.0740 H   0  0
   -2.1440   -0.8830    0.1650 H   0  0
    0.2940   -2.5840    0.8590 H   0  0
   -0.3580   -2.2020   -0.7260 H   0  0
   -2.5300    2.1930    3.8150 H   0  0
   -0.0620    2.4230    1.7340 H   0  0
   -1.7950   -3.6680    1.2200 H   0  0
  1  7  1  0  0  0
  1 12  1  0  0  0
  1  2  1  0  0  0
  1 10  1  0  0  0
  2 13  1  0  0  0
  2  3  1  0  0  0
  2  8  1  0  0  0
  3 14  1  0  0  0
  3  9  1  0  0  0
  3  4  1  0  0  0
  4 15  1  0  0  0
  4  5  1  0  0  0
  5 16  1  0  0  0
  5  6  1  0  0  0
  5 10  1  0  0  0
  6 17  1  0  0  0
  6 18  1  0  0  0
  6 11  1  0  0  0
  8 19  1  0  0  0
  9 20  1  0  0  0
 11 21  1  0  0  0
 22 33  1  0  0  0
 22 28  1  0  0  0
 22 23  1  0  0  0
 22 31  1  0  0  0
 23 24  1  0  0  0
 23 34  1  0  0  0
 23 29  1  0  0  0
 24 35  1  0  0  0
 24 30  1  0  0  0
 24 25  1  0  0  0
 25 36  1  0  0  0
 25 26  1  0  0  0
 26 37  1  0  0  0
 26 31  1  0  0  0
 26 27  1  0  0  0
 27 38  1  0  0  0
 27 39  1  0  0  0
 27 32  1  0  0  0
 29 40  1  0  0  0
 30 41  1  0  0  0
 32 42  1  0  0  0
 43 54  1  0  0  0
 43 44  1  0  0  0
 43 52  1  0  0  0
 43 49  1  0  0  0
 44 55  1  0  0  0
 44 45  1  0  0  0
 44 50  1  0  0  0
 45 51  1  0  0  0
 45 46  1  0  0  0
 45 56  1  0  0  0
 46 47  1  0  0  0
 46 57  1  0  0  0
 47 48  1  0  0  0
 47 52  1  0  0  0
 47 58  1  0  0  0
 48 60  1  0  0  0
 48 53  1  0  0  0
 48 59  1  0  0  0
 50 61  1  0  0  0
 51 62  1  0  0  0
 53 63  1  0  0  0
 64 70  1  0  0  0
 64 65  1  0  0  0
 64 73  1  0  0  0
 64 75  1  0  0  0
 65 71  1  0  0  0
 65 76  1  0  0  0
 65 66  1  0  0  0
 66 77  1  0  0  0
 66 72  1  0  0  0
 66 67  1  0  0  0
 67 68  1  0  0  0
 67 78  1  0  0  0
 68 79  1  0  0  0
 68 69  1  0  0  0
 68 73  1  0  0  0
 69 81  1  0  0  0
 69 80  1  0  0  0
 69 74  1  0  0  0
 71 82  1  0  0  0
 72 83  1  0  0  0
 74 84  1  0  0  0
 85 91  1  0  0  0
 85 96  1  0  0  0
 85 86  1  0  0  0
 85 94  1  0  0  0
 86 97  1  0  0  0
 86 92  1  0  0  0
 86 87  1  0  0  0
 87 88  1  0  0  0
 87 98  1  0  0  0
 87 93  1  0  0  0
 88 99  1  0  0  0
 88 89  1  0  0  0
 89100  1  0  0  0
 89 90  1  0  0  0
 89 94  1  0  0  0
 90101  1  0  0  0
 90 95  1  0  0  0
 90102  1  0  0  0
 92103  1  0  0  0
 93104  1  0  0  0
 95105  1  0  0  0
106117  1  0  0  0
106112  1  0  0  0
106115  1  0  0  0
106107  1  0  0  0
107113  1  0  0  0
107118  1  0  0  0
107108  1  0  0  0
108109  1  0  0  0
108119  1  0  0  0
108114  1  0  0  0
109110  1  0  0  0
109120  1  0  0  0
110111  1  0  0  0
110115  1  0  0  0
110121  1  0  0  0
111122  1  0  0  0
111123  1  0  0  0
111116  1  0  0  0
113124  1  0  0  0
114125  1  0  0  0
116126  1  0  0  0
127133  1  0  0  0
127138  1  0  0  0
127136  1  0  0  0
127128  1  0  0  0
128139  1  0  0  0
128134  1  0  0  0
128129  1  0  0  0
129130  1  0  0  0
129140  1  0  0  0
129135  1  0  0  0
130141  1  0  0  0
130131  1  0  0  0
131136  1  0  0  0
131132  1  0  0  0
131142  1  0  0  0
132143  1  0  0  0
132144  1  0  0  0
132137  1  0  0  0
134145  1  0  0  0
135146  1  0  0  0
137147  1  0  0  0
148157  1  0  0  0
148154  1  0  0  0
148149  1  0  0  0
148159  1  0  0  0
149150  1  0  0  0
149155  1  0  0  0
149160  1  0  0  0
150156  1  0  0  0
150161  1  0  0  0
150151  1  0  0  0
151152  1  0  0  0
151162  1  0  0  0
152163  1  0  0  0
152153  1  0  0  0
152157  1  0  0  0
153164  1  0  0  0
153158  1  0  0  0
153165  1  0  0  0
155166  1  0  0  0
156167  1  0  0  0
158168  1  0  0  0
  4 28  1  0  0  0
 25 49  1  0  0  0
 46 70  1  0  0  0
 67 91  1  0  0  0
 88112  1  0  0  0
109133  1  0  0  0
130154  1  0  0  0
  7151  1  0  0  0
M  END
$$$$
