Molecule
  DSViewer          3D                             0

126132  0  0  0  0  0  0  0  0999 V2000
    0.1164    0.8149    0.5445 C   0  0  1  0  0  0
   -0.6137    2.1387    0.2651 C   0  0  1  0  0  0
   -1.3542    2.0236   -1.0728 C   0  0  2  0  0  0
   -0.3774    1.6284   -2.1751 C   0  0  1  0  0  0
    0.3681    0.3399   -1.7862 C   0  0  1  0  0  0
    1.4767   -0.0262   -2.7780 C   0  0
   -0.8890   -0.1714    0.5988 O   0  0
   -1.5647    2.4559    1.2649 O   0  0
   -2.0044    3.2330   -1.4310 O   0  0
    0.9924    0.5106   -0.5228 O   0  0
    2.4447   -0.8492   -2.1490 O   0  0
   -2.0709   -3.5151    2.6804 C   0  0  1  0  0  0
   -2.4695   -2.1577    3.2821 C   0  0  1  0  0  0
   -2.3057   -1.0731    2.2103 C   0  0  2  0  0  0
   -0.8832   -1.0960    1.6613 C   0  0  1  0  0  0
   -0.5345   -2.5049    1.1507 C   0  0  1  0  0  0
    0.9325   -2.6368    0.7298 C   0  0
   -2.9504   -3.7265    1.5994 O   0  0
   -3.8139   -2.1340    3.7257 O   0  0
   -2.5969    0.2226    2.7103 O   0  0
   -0.7486   -3.4549    2.1835 O   0  0
    1.3375   -3.9944    0.7834 O   0  0
   -5.2084   -6.6221   -0.2521 C   0  0  1  0  0  0
   -5.8439   -5.9335    0.9667 C   0  0  1  0  0  0
   -5.0616   -4.6512    1.2754 C   0  0  2  0  0  0
   -3.5846   -4.9773    1.4682 C   0  0  1  0  0  0
   -3.0437   -5.7324    0.2416 C   0  0  1  0  0  0
   -1.6073   -6.2278    0.4362 C   0  0
   -5.3074   -5.6949   -1.3090 O   0  0
   -7.1963   -5.5777    0.7454 O   0  0
   -5.5525   -3.9891    2.4306 O   0  0
   -3.8408   -6.8811   -0.0032 O   0  0
   -1.3450   -7.3215   -0.4270 O   0  0
   -6.1602   -5.3990   -5.3209 C   0  0  1  0  0  0
   -7.3636   -5.4101   -4.3643 C   0  0  1  0  0  0
   -6.8677   -5.1289   -2.9406 C   0  0  2  0  0  0
   -5.7844   -6.1323   -2.5600 C   0  0  1  0  0  0
   -4.6556   -6.1161   -3.6054 C   0  0  1  0  0  0
   -3.6114   -7.2115   -3.3676 C   0  0
   -5.6029   -4.1084   -5.2183 O   0  0
   -8.3279   -4.4270   -4.6932 O   0  0
   -7.9171   -5.1843   -1.9871 O   0  0
   -5.1967   -6.3434   -4.8979 O   0  0
   -2.9295   -7.5088   -4.5745 O   0  0
   -3.9682   -1.0723   -7.4590 C   0  0  1  0  0  0
   -5.5031   -1.1163   -7.3818 C   0  0  1  0  0  0
   -5.9151   -2.0322   -6.2230 C   0  0  2  0  0  0
   -5.2795   -3.4075   -6.3965 C   0  0  1  0  0  0
   -3.7541   -3.2719   -6.5441 C   0  0  1  0  0  0
   -3.0702   -4.6013   -6.8786 C   0  0
   -3.5384   -0.5556   -6.2200 O   0  0
   -6.0721    0.1600   -7.1535 O   0  0
   -7.3238   -2.1731   -6.1262 O   0  0
   -3.4533   -2.3807   -7.6073 O   0  0
   -1.8239   -4.3654   -7.5119 O   0  0
   -0.8266    2.0315   -4.5276 C   0  0  1  0  0  0
   -2.1226    2.6562   -5.0694 C   0  0  1  0  0  0
   -3.1545    1.5435   -5.2906 C   0  0  2  0  0  0
   -2.5733    0.4703   -6.2048 C   0  0  1  0  0  0
   -1.2416   -0.0479   -5.6344 C   0  0  1  0  0  0
   -0.5267   -1.0153   -6.5831 C   0  0
   -1.1804    1.4123   -3.3119 O   0  0
   -2.6839    3.6016   -4.1773 O   0  0
   -4.3618    2.0359   -5.8505 O   0  0
   -0.3565    1.0410   -5.4205 O   0  0
    0.8619   -1.0440   -6.2986 O   0  0
    0.6797    0.8823    1.4766 H   0  0
    0.1143    2.9505    0.2228 H   0  0
   -2.1105    1.2328   -1.0191 H   0  0
    0.3331    2.4414   -2.3305 H   0  0
   -0.3333   -0.4940   -1.7320 H   0  0
    1.9661    0.8656   -3.1821 H   0  0
    1.0599   -0.5704   -3.6257 H   0  0
   -1.9880    1.6373    1.5458 H   0  0
   -2.4566    3.5517   -0.6460 H   0  0
    2.6843   -0.4363   -1.3159 H   0  0
   -2.1466   -4.3006    3.4340 H   0  0
   -1.8284   -1.9399    4.1378 H   0  0
   -2.9758   -1.2716    1.3666 H   0  0
   -0.1911   -0.8004    2.4509 H   0  0
   -1.1615   -2.7562    0.2940 H   0  0
    1.5898   -2.0366    1.3669 H   0  0
    1.0661   -2.2773   -0.2907 H   0  0
   -4.3441   -2.6410    3.1012 H   0  0
   -3.4100    0.1519    3.2163 H   0  0
    1.0642   -4.3488    1.6330 H   0  0
   -5.7268   -7.5566   -0.4725 H   0  0
   -5.8090   -6.6098    1.8223 H   0  0
   -5.1266   -3.9564    0.4307 H   0  0
   -3.4677   -5.5861    2.3659 H   0  0
   -3.0674   -5.0835   -0.6352 H   0  0
   -1.4225   -6.5304    1.4717 H   0  0
   -0.8991   -5.4310    0.2079 H   0  0
   -7.2820   -5.2796   -0.1667 H   0  0
   -6.5102   -3.9744    2.3600 H   0  0
   -2.0683   -7.9466   -0.3367 H   0  0
   -6.4821   -5.6302   -6.3375 H   0  0
   -7.8494   -6.3863   -4.4067 H   0  0
   -6.4122   -4.1338   -2.8889 H   0  0
   -6.2259   -7.1280   -2.4989 H   0  0
   -4.1491   -5.1499   -3.5914 H   0  0
   -4.0686   -8.1251   -2.9746 H   0  0
   -2.8794   -6.8812   -2.6304 H   0  0
   -7.8616   -3.6374   -4.9887 H   0  0
   -8.6566   -4.6940   -2.3546 H   0  0
   -3.5892   -7.6367   -5.2605 H   0  0
   -3.6486   -0.4526   -8.2982 H   0  0
   -5.9009   -1.4993   -8.3229 H   0  0
   -5.5467   -1.6288   -5.2733 H   0  0
   -5.7016   -3.8866   -7.2809 H   0  0
   -3.3232   -2.8874   -5.6185 H   0  0
   -3.6949   -5.2234   -7.5272 H   0  0
   -2.8914   -5.1732   -5.9679 H   0  0
   -5.4993    0.6385   -6.5443 H   0  0
   -7.7005   -1.2941   -6.2144 H   0  0
   -1.9680   -3.7272   -8.2147 H   0  0
   -0.0631    2.7993   -4.3931 H   0  0
   -1.9117    3.1653   -6.0112 H   0  0
   -3.3939    1.0557   -4.3392 H   0  0
   -2.4174    0.8936   -7.1980 H   0  0
   -1.4167   -0.5616   -4.6880 H   0  0
   -0.6768   -0.7365   -7.6308 H   0  0
   -0.9240   -2.0235   -6.4636 H   0  0
   -2.5592    3.2763   -3.2790 H   0  0
   -4.5938    2.8302   -5.3630 H   0  0
    1.1689   -0.1359   -6.2431 H   0  0
  1 67  1  0  0  0
  1  2  1  0  0  0
  1  7  1  0  0  0
  1 10  1  0  0  0
  2  8  1  0  0  0
  2 68  1  0  0  0
  2  3  1  0  0  0
  3  9  1  0  0  0
  3 69  1  0  0  0
  3  4  1  0  0  0
  4 62  1  0  0  0
  4  5  1  0  0  0
  4 70  1  0  0  0
  5  6  1  0  0  0
  5 10  1  0  0  0
  5 71  1  0  0  0
  6 11  1  0  0  0
  6 72  1  0  0  0
  6 73  1  0  0  0
  7 15  1  0  0  0
  8 74  1  0  0  0
  9 75  1  0  0  0
 11 76  1  0  0  0
 12 13  1  0  0  0
 12 21  1  0  0  0
 12 77  1  0  0  0
 12 18  1  0  0  0
 13 14  1  0  0  0
 13 78  1  0  0  0
 13 19  1  0  0  0
 14 20  1  0  0  0
 14 79  1  0  0  0
 14 15  1  0  0  0
 15 16  1  0  0  0
 15 80  1  0  0  0
 16 81  1  0  0  0
 16 17  1  0  0  0
 16 21  1  0  0  0
 17 82  1  0  0  0
 17 22  1  0  0  0
 17 83  1  0  0  0
 18 26  1  0  0  0
 19 84  1  0  0  0
 20 85  1  0  0  0
 22 86  1  0  0  0
 23 29  1  0  0  0
 23 32  1  0  0  0
 23 87  1  0  0  0
 23 24  1  0  0  0
 24 30  1  0  0  0
 24 25  1  0  0  0
 24 88  1  0  0  0
 25 26  1  0  0  0
 25 89  1  0  0  0
 25 31  1  0  0  0
 26 27  1  0  0  0
 26 90  1  0  0  0
 27 28  1  0  0  0
 27 91  1  0  0  0
 27 32  1  0  0  0
 28 92  1  0  0  0
 28 93  1  0  0  0
 28 33  1  0  0  0
 29 37  1  0  0  0
 30 94  1  0  0  0
 31 95  1  0  0  0
 33 96  1  0  0  0
 34 97  1  0  0  0
 34 40  1  0  0  0
 34 35  1  0  0  0
 34 43  1  0  0  0
 35 98  1  0  0  0
 35 41  1  0  0  0
 35 36  1  0  0  0
 36 99  1  0  0  0
 36 42  1  0  0  0
 36 37  1  0  0  0
 37100  1  0  0  0
 37 38  1  0  0  0
 38 43  1  0  0  0
 38101  1  0  0  0
 38 39  1  0  0  0
 39102  1  0  0  0
 39103  1  0  0  0
 39 44  1  0  0  0
 40 48  1  0  0  0
 41104  1  0  0  0
 42105  1  0  0  0
 44106  1  0  0  0
 45107  1  0  0  0
 45 46  1  0  0  0
 45 54  1  0  0  0
 45 51  1  0  0  0
 46108  1  0  0  0
 46 52  1  0  0  0
 46 47  1  0  0  0
 47 53  1  0  0  0
 47 48  1  0  0  0
 47109  1  0  0  0
 48 49  1  0  0  0
 48110  1  0  0  0
 49111  1  0  0  0
 49 50  1  0  0  0
 49 54  1  0  0  0
 50113  1  0  0  0
 50 55  1  0  0  0
 50112  1  0  0  0
 51 59  1  0  0  0
 52114  1  0  0  0
 53115  1  0  0  0
 55116  1  0  0  0
 56117  1  0  0  0
 56 57  1  0  0  0
 56 65  1  0  0  0
 56 62  1  0  0  0
 57 63  1  0  0  0
 57 58  1  0  0  0
 57118  1  0  0  0
 58119  1  0  0  0
 58 64  1  0  0  0
 58 59  1  0  0  0
 59 60  1  0  0  0
 59120  1  0  0  0
 60 61  1  0  0  0
 60 65  1  0  0  0
 60121  1  0  0  0
 61 66  1  0  0  0
 61123  1  0  0  0
 61122  1  0  0  0
 63124  1  0  0  0
 64125  1  0  0  0
 66126  1  0  0  0
M  END
$$$$
