Octa acid guest3
  DSViewer          3D                             0

 32 31  0  0  0  0  0  0  0  0999 V2000
   -2.8550    0.2520    4.8540 C   0  0  0  0  0  0  0  0  0  1
   -2.0490    1.4740    4.4040 C   0  0  0  0  0  0  0  0  0  2
   -2.8470    2.7620    4.6410 C   0  0  0  0  0  0  0  0  0  3
   -2.0400    3.9870    4.1900 C   0  0  0  0  0  0  0  0  0  4
   -2.8440    5.2740    4.4290 C   0  0  0  0  0  0  0  0  0  5
   -1.9440    6.4320    3.9440 C   0  0  0  0  0  0  0  0  0  6
   -2.6300    7.7550    4.1300 N   0  3  0  0  0  0  0  0  0  7
   -3.8880    7.8310    3.3370 C   0  0  0  0  0  0  0  0  0  8
   -1.7100    8.8130    3.6440 C   0  0  0  0  0  0  0  0  0  9
   -2.9250    8.0170    5.5660 C   0  0  0  0  0  0  0  0  0 10
   -3.0830    0.3240    5.9180 H   0  0  0  0  0  0  0  0  0 11
   -3.7860    0.1880    4.2890 H   0  0  0  0  0  0  0  0  0 12
   -1.8150    1.3750    3.3410 H   0  0  0  0  0  0  0  0  0 13
   -1.1130    1.5110    4.9660 H   0  0  0  0  0  0  0  0  0 14
   -3.0810    2.8480    5.7040 H   0  0  0  0  0  0  0  0  0 15
   -3.7820    2.7120    4.0790 H   0  0  0  0  0  0  0  0  0 16
   -1.8070    3.8860    3.1270 H   0  0  0  0  0  0  0  0  0 17
   -1.1040    4.0220    4.7540 H   0  0  0  0  0  0  0  0  0 18
   -3.0630    5.3580    5.4940 H   0  0  0  0  0  0  0  0  0 19
   -3.7700    5.2210    3.8570 H   0  0  0  0  0  0  0  0  0 20
   -1.7400    6.2750    2.8910 H   0  0  0  0  0  0  0  0  0 21
   -1.0320    6.4120    4.5300 H   0  0  0  0  0  0  0  0  0 22
   -2.2730   -0.6540    4.6780 H   0  0  0  0  0  0  0  0  0 23
   -3.6590    7.5840    2.3070 H   0  0  0  0  0  0  0  0  0 24
   -4.6000    7.1260    3.7480 H   0  0  0  0  0  0  0  0  0 25
   -4.2770    8.8390    3.4090 H   0  0  0  0  0  0  0  0  0 26
   -1.5010    8.6310    2.5960 H   0  0  0  0  0  0  0  0  0 27
   -2.1940    9.7740    3.7730 H   0  0  0  0  0  0  0  0  0 28
   -0.7970    8.7670    4.2270 H   0  0  0  0  0  0  0  0  0 29
   -3.3070    9.0270    5.6570 H   0  0  0  0  0  0  0  0  0 30
   -3.6700    7.3060    5.9020 H   0  0  0  0  0  0  0  0  0 31
   -2.0070    7.9040    6.1300 H   0  0  0  0  0  0  0  0  0 32
  1  2  1  0  0  0
  1 11  1  0  0  0
  1 12  1  0  0  0
  1 23  1  0  0  0
  2  3  1  0  0  0
  2 13  1  0  0  0
  2 14  1  0  0  0
  3  4  1  0  0  0
  3 15  1  0  0  0
  3 16  1  0  0  0
  4  5  1  0  0  0
  4 17  1  0  0  0
  4 18  1  0  0  0
  5  6  1  0  0  0
  5 19  1  0  0  0
  5 20  1  0  0  0
  6  7  1  0  0  0
  6 21  1  0  0  0
  6 22  1  0  0  0
  7  8  1  0  0  0
  7  9  1  0  0  0
  7 10  1  0  0  0
  8 24  1  0  0  0
  8 25  1  0  0  0
  8 26  1  0  0  0
  9 27  1  0  0  0
  9 28  1  0  0  0
  9 29  1  0  0  0
 10 30  1  0  0  0
 10 31  1  0  0  0
 10 32  1  0  0  0
M  CHG  1   7   1
M  END
