Octa acid guest2
  DSViewer          3D                             0

 15 15  0  0  0  0  0  0  0  0999 V2000
    0.0250    0.1800    0.9490 C   0  0  0  0  0  0  0  0  0  1
    1.4020    0.3370    0.8470 C   0  0  0  0  0  0  0  0  0  2
    1.9490    1.1700   -0.1320 C   0  0  0  0  0  0  0  0  0  3
    1.0930    1.8440   -1.0080 C   0  0  0  0  0  0  0  0  0  4
   -0.2840    1.6870   -0.9050 C   0  0  0  0  0  0  0  0  0  5
   -0.8430    0.8520    0.0750 C   0  0  0  0  0  0  0  0  0  6
    3.3750    1.3320   -0.2380 C   0  0  0  0  0  0  0  0  0  7
    4.5080    1.4610   -0.3220 N   0  0  0  0  0  0  0  0  0  8
   -2.3030    0.6860    0.1830 C   0  0  0  0  0  0  0  0  0  9
   -3.0580    1.3030   -0.6170 O   0  0  0  0  0  0  0  0  0 10
   -2.7760   -0.0710    1.0750 O   0  5  0  0  0  0  0  0  0 11
   -0.3860   -0.4540    1.6950 H   0  0  0  0  0  0  0  0  0 12
    2.0370   -0.1810    1.5200 H   0  0  0  0  0  0  0  0  0 13
    1.4910    2.4790   -1.7570 H   0  0  0  0  0  0  0  0  0 14
   -0.9300    2.2010   -1.5730 H   0  0  0  0  0  0  0  0  0 15
  1  2  2  0  0  0
  1  6  1  0  0  0
  1 12  1  0  0  0
  2  3  1  0  0  0
  2 13  1  0  0  0
  3  4  2  0  0  0
  3  7  1  0  0  0
  4  5  1  0  0  0
  4 14  1  0  0  0
  5  6  2  0  0  0
  5 15  1  0  0  0
  6  9  1  0  0  0
  7  8  3  0  0  0
  9 10  2  0  0  0
  9 11  1  0  0  0
M  CHG  1  11  -1
M  END
