guest-1
  -ISIS-            3D

 17 16  0  0  0  0  0  0  0  0999 V2000
   19.6330   18.8470   24.1380 N   0  3  0  0  0
   19.6610   17.8160   24.1890 H   0  0  0  0  0
   18.6400   19.1270   24.1700 H   0  0  0  0  0
   20.0780   19.2050   24.9980 H   0  0  0  0  0
   20.3230   19.3660   22.8950 C   0  0  0  0  0
   21.3710   19.0570   22.9510 H   0  0  0  0  0
   20.2800   20.4580   22.9300 H   0  0  0  0  0
   19.6960   18.8570   21.5830 C   0  0  0  0  0
   19.7300   17.7650   21.5600 H   0  0  0  0  0
   18.6450   19.1580   21.5390 H   0  0  0  0  0
   20.4470   19.4250   20.3620 C   0  0  0  0  0
   21.4980   19.1260   20.4030 H   0  0  0  0  0
   20.4140   20.5170   20.3820 H   0  0  0  0  0
   19.8300   18.9250   19.0420 C   0  0  0  0  0
   19.8750   17.8340   18.9840 H   0  0  0  0  0
   20.3740   19.3360   18.1900 H   0  0  0  0  0
   18.7840   19.2340   18.9640 H   0  0  0  0  0
  1  2  1  0  0  0
  1  3  1  0  0  0
  1  4  1  0  0  0
  1  5  1  0  0  0
  5  6  1  0  0  0
  5  7  1  0  0  0
  5  8  1  0  0  0
  8  9  1  0  0  0
  8 10  1  0  0  0
  8 11  1  0  0  0
 11 12  1  0  0  0
 11 13  1  0  0  0
 11 14  1  0  0  0
 14 15  1  0  0  0
 14 16  1  0  0  0
 14 17  1  0  0  0
M  END

$$$$
guest-2
  -ISIS-            3D

 23 22  0  0  0  0  0  0  0  0999 V2000
   19.7360   18.6750   26.4240 N   0  3  0  0  0
   19.1990   17.7940   26.4630 H   0  0  0  0  0
   19.4670   19.2300   27.2540 H   0  0  0  0  0
   20.7330   18.4320   26.5330 H   0  0  0  0  0
   19.4790   19.4330   25.1410 C   0  0  0  0  0
   20.0510   20.3630   25.1920 H   0  0  0  0  0
   18.4150   19.6810   25.1170 H   0  0  0  0  0
   19.8630   18.6480   23.8730 C   0  0  0  0  0
   20.9250   18.3930   23.9080 H   0  0  0  0  0
   19.2970   17.7140   23.8330 H   0  0  0  0  0
   19.5740   19.4820   22.6060 C   0  0  0  0  0
   20.1390   20.4170   22.6500 H   0  0  0  0  0
   18.5120   19.7390   22.5760 H   0  0  0  0  0
   19.9540   18.7070   21.3270 C   0  0  0  0  0
   21.0170   18.4500   21.3580 H   0  0  0  0  0
   19.3900   17.7730   21.2840 H   0  0  0  0  0
   19.6650   19.5420   20.0600 C   0  0  0  0  0
   20.2300   20.4770   20.0980 H   0  0  0  0  0
   18.6030   19.7990   20.0240 H   0  0  0  0  0
   20.0450   18.7700   18.7830 C   0  0  0  0  0
   21.1080   18.5240   18.7840 H   0  0  0  0  0
   19.8330   19.3750   17.8990 H   0  0  0  0  0
   19.4720   17.8430   18.7100 H   0  0  0  0  0
  1  2  1  0  0  0
  1  3  1  0  0  0
  1  4  1  0  0  0
  1  5  1  0  0  0
  5  6  1  0  0  0
  5  7  1  0  0  0
  5  8  1  0  0  0
  8  9  1  0  0  0
  8 10  1  0  0  0
  8 11  1  0  0  0
 11 12  1  0  0  0
 11 13  1  0  0  0
 11 14  1  0  0  0
 14 15  1  0  0  0
 14 16  1  0  0  0
 14 17  1  0  0  0
 17 18  1  0  0  0
 17 19  1  0  0  0
 17 20  1  0  0  0
 20 21  1  0  0  0
 20 22  1  0  0  0
 20 23  1  0  0  0
M  END

$$$$
guest-3
  -ISIS-            3D

 29 28  0  0  0  0  0  0  0  0999 V2000
   19.9880   18.9940   18.8320 C   0  0  0  0  0
   20.2910   17.9440   18.7930 H   0  0  0  0  0
   19.4140   19.2180   17.9300 H   0  0  0  0  0
   20.8860   19.6160   18.8310 H   0  0  0  0  0
   19.1370   19.2680   20.0860 C   0  0  0  0  0
   18.2340   18.6530   20.0490 H   0  0  0  0  0
   18.8250   20.3150   20.0860 H   0  0  0  0  0
   19.9240   18.9590   21.3770 C   0  0  0  0  0
   20.2380   17.9120   21.3710 H   0  0  0  0  0
   20.8290   19.5730   21.4080 H   0  0  0  0  0
   19.0720   19.2340   22.6320 C   0  0  0  0  0
   18.1690   18.6210   22.6000 H   0  0  0  0  0
   18.7600   20.2820   22.6370 H   0  0  0  0  0
   19.8590   18.9260   23.9230 C   0  0  0  0  0
   20.1720   17.8780   23.9170 H   0  0  0  0  0
   20.7630   19.5400   23.9540 H   0  0  0  0  0
   19.0060   19.2020   25.1790 C   0  0  0  0  0
   18.1020   18.5870   25.1470 H   0  0  0  0  0
   18.6930   20.2480   25.1840 H   0  0  0  0  0
   19.7920   18.8920   26.4700 C   0  0  0  0  0
   20.1040   17.8440   26.4670 H   0  0  0  0  0
   20.6960   19.5080   26.5040 H   0  0  0  0  0
   18.9290   19.1720   27.7150 C   0  0  0  0  0
   18.0290   18.5510   27.6890 H   0  0  0  0  0
   18.6240   20.2220   27.7270 H   0  0  0  0  0
   19.6370   18.8910   29.0210 N   0  3  0  0  0
   19.9290   17.9030   29.0950 H   0  0  0  0  0
   19.0300   19.0890   29.8340 H   0  0  0  0  0
   20.4860   19.4690   29.1300 H   0  0  0  0  0
  1  2  1  0  0  0
  1  3  1  0  0  0
  1  4  1  0  0  0
  1  5  1  0  0  0
  5  6  1  0  0  0
  5  7  1  0  0  0
  5  8  1  0  0  0
  8  9  1  0  0  0
  8 10  1  0  0  0
  8 11  1  0  0  0
 11 12  1  0  0  0
 11 13  1  0  0  0
 11 14  1  0  0  0
 14 15  1  0  0  0
 14 16  1  0  0  0
 14 17  1  0  0  0
 17 18  1  0  0  0
 17 19  1  0  0  0
 17 20  1  0  0  0
 20 21  1  0  0  0
 20 22  1  0  0  0
 20 23  1  0  0  0
 23 24  1  0  0  0
 23 25  1  0  0  0
 23 26  1  0  0  0
 26 27  1  0  0  0
 26 28  1  0  0  0
 26 29  1  0  0  0
M  END

$$$$
guest-4
  -ISIS-            3D

 16 16  0  0  0  0  0  0  0  0999 V2000
   19.7090   18.9910   20.9340 C   0  0  0  0  0
   19.6980   19.8820   20.3010 H   0  0  0  0  0
   20.1540   18.1650   20.3720 H   0  0  0  0  0
   18.3040   18.5960   21.4030 C   0  0  0  0  0
   17.7380   19.4960   21.6610 H   0  0  0  0  0
   17.7550   18.0430   20.6380 H   0  0  0  0  0
   18.5430   17.7550   22.6650 C   0  0  0  0  0
   18.6550   16.7050   22.3870 H   0  0  0  0  0
   17.7060   17.8360   23.3630 H   0  0  0  0  0
   19.8720   18.2550   23.2720 C   0  0  0  0  0
   20.5360   17.4030   23.4480 H   0  0  0  0  0
   20.4950   19.2140   22.2360 C   0  0  0  0  0
   20.3770   20.2530   22.5530 H   0  0  0  0  0
   21.5590   19.0130   22.0940 H   0  0  0  0  0
   19.6260   18.9440   24.5040 O   0  0  0  0  0
   20.5210   19.1640   24.8930 H   0  0  0  0  0
  1  2  1  0  0  0
  1  3  1  0  0  0
  1  4  1  0  0  0
  1 12  1  0  0  0
  4  5  1  0  0  0
  4  6  1  0  0  0
  4  7  1  0  0  0
  7  8  1  0  0  0
  7  9  1  0  0  0
  7 10  1  0  0  0
 10 11  1  0  0  0
 10 12  1  0  0  0
 10 15  1  0  0  0
 12 13  1  0  0  0
 12 14  1  0  0  0
 15 16  1  0  0  0
M  END

$$$$
guest-5
  -ISIS-            3D

 22 22  0  0  0  0  0  0  0  0999 V2000
   19.7090   18.9910   20.9340 C   0  0  0  0  0
   20.4400   18.7590   20.1560 H   0  0  0  0  0
   18.7280   18.7520   20.5170 H   0  0  0  0  0
   19.7750   20.5080   21.2160 C   0  0  0  0  0
   20.8120   20.8500   21.1470 H   0  0  0  0  0
   19.2360   21.0200   20.4150 H   0  0  0  0  0
   19.1760   20.9400   22.5730 C   0  0  0  0  0
   18.2960   20.3460   22.8220 H   0  0  0  0  0
   18.8340   21.9730   22.4710 H   0  0  0  0  0
   20.2220   20.9110   23.7130 C   0  0  0  0  0
   21.1120   21.4570   23.3930 H   0  0  0  0  0
   19.8210   21.4710   24.5640 H   0  0  0  0  0
   20.6510   19.5100   24.2070 C   0  0  0  0  0
   21.5220   19.6610   24.8530 H   0  0  0  0  0
   21.0870   18.5190   23.0950 C   0  0  0  0  0
   21.9100   18.9460   22.5160 H   0  0  0  0  0
   21.4910   17.6310   23.5860 H   0  0  0  0  0
   19.9520   18.0620   22.1450 C   0  0  0  0  0
   20.2090   17.0740   21.7540 H   0  0  0  0  0
   19.0200   17.9300   22.6970 H   0  0  0  0  0
   19.6140   18.9370   25.0240 O   0  0  0  0  0
   18.7850   18.8820   24.4730 H   0  0  0  0  0
  1  2  1  0  0  0
  1  3  1  0  0  0
  1  4  1  0  0  0
  1 18  1  0  0  0
  4  5  1  0  0  0
  4  6  1  0  0  0
  4  7  1  0  0  0
  7  8  1  0  0  0
  7  9  1  0  0  0
  7 10  1  0  0  0
 10 11  1  0  0  0
 10 12  1  0  0  0
 10 13  1  0  0  0
 13 14  1  0  0  0
 13 15  1  0  0  0
 13 21  1  0  0  0
 15 16  1  0  0  0
 15 17  1  0  0  0
 15 18  1  0  0  0
 18 19  1  0  0  0
 18 20  1  0  0  0
 21 22  1  0  0  0
M  END

$$$$
guest-6
  -ISIS-            3D

 13 12  0  0  0  0  0  0  0  0999 V2000
   20.0920   19.1100   23.9290 C   0  0  0  0  0
   20.8130   20.0820   24.0870 O   0  5  0  0  0
   19.6460   18.5170   24.8970 O   0  0  0  0  0
   19.7260   18.6070   22.5320 C   0  0  0  0  0
   18.6370   18.6160   22.4190 H   0  0  0  0  0
   20.0500   17.5660   22.4270 H   0  0  0  0  0
   20.3530   19.4420   21.3930 C   0  0  0  0  0
   20.0230   20.4810   21.4690 H   0  0  0  0  0
   21.4420   19.4270   21.4770 H   0  0  0  0  0
   19.9520   18.8920   20.0120 C   0  0  0  0  0
   18.8670   18.9170   19.8850 H   0  0  0  0  0
   20.4030   19.4940   19.2190 H   0  0  0  0  0
   20.2920   17.8600   19.8930 H   0  0  0  0  0
  1  2  1  0  0  0
  1  3  2  0  0  0
  1  4  1  0  0  0
  4  5  1  0  0  0
  4  6  1  0  0  0
  4  7  1  0  0  0
  7  8  1  0  0  0
  7  9  1  0  0  0
  7 10  1  0  0  0
 10 11  1  0  0  0
 10 12  1  0  0  0
 10 13  1  0  0  0
M  END

$$$$
guest-7
  -ISIS-            3D

 19 18  0  0  0  0  0  0  0  0999 V2000
   20.0070   19.2180   25.5150 C   0  0  0  0  0
   19.9490   18.5890   26.5590 O   0  5  0  0  0
   20.1200   20.4320   25.5420 O   0  0  0  0  0
   19.9360   18.4500   24.1900 C   0  0  0  0  0
   19.0000   17.8820   24.1520 H   0  0  0  0  0
   20.7510   17.7190   24.1520 H   0  0  0  0  0
   20.0200   19.3550   22.9390 C   0  0  0  0  0
   19.1990   20.0760   22.9510 H   0  0  0  0  0
   20.9600   19.9120   22.9510 H   0  0  0  0  0
   19.9430   18.5200   21.6420 C   0  0  0  0  0
   19.0050   17.9580   21.6240 H   0  0  0  0  0
   20.7610   17.7960   21.6240 H   0  0  0  0  0
   20.0260   19.4190   20.3910 C   0  0  0  0  0
   19.2080   20.1440   20.4030 H   0  0  0  0  0
   20.9640   19.9810   20.4030 H   0  0  0  0  0
   19.9490   18.5890   19.0970 C   0  0  0  0  0
   19.0070   18.0390   19.0470 H   0  0  0  0  0
   20.0100   19.2430   18.2250 H   0  0  0  0  0
   20.7730   17.8740   19.0470 H   0  0  0  0  0
  1  2  1  0  0  0
  1  3  2  0  0  0
  1  4  1  0  0  0
  4  5  1  0  0  0
  4  6  1  0  0  0
  4  7  1  0  0  0
  7  8  1  0  0  0
  7  9  1  0  0  0
  7 10  1  0  0  0
 10 11  1  0  0  0
 10 12  1  0  0  0
 10 13  1  0  0  0
 13 14  1  0  0  0
 13 15  1  0  0  0
 13 16  1  0  0  0
 16 17  1  0  0  0
 16 18  1  0  0  0
 16 19  1  0  0  0
M  END

$$$$
guest-8
  -ISIS-            3D

 25 24  0  0  0  0  0  0  0  0999 V2000
   20.1280   19.3370   27.8030 C   0  0  0  0  0
   21.0050   20.1840   27.8560 O   0  5  0  0  0
   19.6430   18.8930   28.8290 O   0  0  0  0  0
   19.6120   18.8080   26.4630 C   0  0  0  0  0
   18.5340   18.9890   26.3940 H   0  0  0  0  0
   19.7550   17.7220   26.4240 H   0  0  0  0  0
   20.3020   19.4450   25.2350 C   0  0  0  0  0
   20.1510   20.5280   25.2480 H   0  0  0  0  0
   21.3790   19.2560   25.2770 H   0  0  0  0  0
   19.7390   18.8700   23.9180 C   0  0  0  0  0
   18.6620   19.0570   23.8690 H   0  0  0  0  0
   19.8870   17.7870   23.8980 H   0  0  0  0  0
   20.4250   19.5060   22.6900 C   0  0  0  0  0
   20.2770   20.5880   22.7080 H   0  0  0  0  0
   21.5010   19.3180   22.7370 H   0  0  0  0  0
   19.8620   18.9310   21.3730 C   0  0  0  0  0
   18.7850   19.1170   21.3260 H   0  0  0  0  0
   20.0100   17.8480   21.3550 H   0  0  0  0  0
   20.5490   19.5660   20.1470 C   0  0  0  0  0
   20.4000   20.6480   20.1590 H   0  0  0  0  0
   21.6240   19.3780   20.1890 H   0  0  0  0  0
   19.9880   18.9940   18.8320 C   0  0  0  0  0
   18.9160   19.1900   18.7520 H   0  0  0  0  0
   20.4860   19.4540   17.9760 H   0  0  0  0  0
   20.1480   17.9140   18.7810 H   0  0  0  0  0
  1  2  1  0  0  0
  1  3  2  0  0  0
  1  4  1  0  0  0
  4  5  1  0  0  0
  4  6  1  0  0  0
  4  7  1  0  0  0
  7  8  1  0  0  0
  7  9  1  0  0  0
  7 10  1  0  0  0
 10 11  1  0  0  0
 10 12  1  0  0  0
 10 13  1  0  0  0
 13 14  1  0  0  0
 13 15  1  0  0  0
 13 16  1  0  0  0
 16 17  1  0  0  0
 16 18  1  0  0  0
 16 19  1  0  0  0
 19 20  1  0  0  0
 19 21  1  0  0  0
 19 22  1  0  0  0
 22 23  1  0  0  0
 22 24  1  0  0  0
 22 25  1  0  0  0
M  END

$$$$
guest-s9
  -ISIS-            3D

 20 19  0  0  0  0  0  0  0  0999 V2000
   19.8610   19.1430   18.8270 C   0  0  0  0  0
   20.3490   18.6870   17.9630 H   0  0  0  0  0
   18.7860   18.9730   18.7420 H   0  0  0  0  0
   20.0460   20.2200   18.7950 H   0  0  0  0  0
   20.4090   18.5360   20.1310 C   0  0  0  0  0
   21.4890   18.6960   20.1790 H   0  0  0  0  0
   20.2350   17.4560   20.1260 H   0  0  0  0  0
   19.7350   19.1640   21.3680 C   0  0  0  0  0
   19.9090   20.2430   21.3720 H   0  0  0  0  0
   18.6550   19.0020   21.3200 H   0  0  0  0  0
   20.2920   18.5460   22.6650 C   0  0  0  0  0
   21.3690   18.7170   22.7280 H   0  0  0  0  0
   20.1070   17.4690   22.6750 H   0  0  0  0  0
   19.6820   19.1090   23.9270 N   0  3  0  0  0
   18.6550   18.9710   23.9150 H   0  0  0  0  0
   19.8310   20.1340   23.9640 H   0  0  0  0  0
   20.2870   18.4460   25.1450 C   0  0  0  0  0
   21.3650   18.6330   25.1470 H   0  0  0  0  0
   19.8290   18.8710   26.0410 H   0  0  0  0  0
   20.0900   17.3720   25.0940 H   0  0  0  0  0
  1  2  1  0  0  0
  1  3  1  0  0  0
  1  4  1  0  0  0
  1  5  1  0  0  0
  5  6  1  0  0  0
  5  7  1  0  0  0
  5  8  1  0  0  0
  8  9  1  0  0  0
  8 10  1  0  0  0
  8 11  1  0  0  0
 11 12  1  0  0  0
 11 13  1  0  0  0
 11 14  1  0  0  0
 14 15  1  0  0  0
 14 16  1  0  0  0
 14 17  1  0  0  0
 17 18  1  0  0  0
 17 19  1  0  0  0
 17 20  1  0  0  0
M  END

$$$$
guest-s10
  -ISIS-            3D

 20 19  0  0  0  0  0  0  0  0999 V2000
   20.2980   20.2390   24.2320 N   0  3  0  0  0
   19.6620   21.0430   24.1230 H   0  0  0  0  0
   21.0840   20.3740   23.5790 H   0  0  0  0  0
   20.6840   20.2840   25.1880 H   0  0  0  0  0
   19.5900   18.9370   23.9860 C   0  0  2  0  0
   18.8030   18.8880   24.7450 H   0  0  0  0  0
   20.5210   17.7290   24.1880 C   0  0  0  0  0
   21.3930   17.7730   23.5320 H   0  0  0  0  0
   19.9890   16.7960   23.9910 H   0  0  0  0  0
   20.8810   17.6930   25.2190 H   0  0  0  0  0
   18.9100   18.8820   22.5980 C   0  0  0  0  0
   18.3350   17.9550   22.5250 H   0  0  0  0  0
   18.1820   19.6970   22.5310 H   0  0  0  0  0
   19.8800   18.9700   21.3930 C   0  0  0  0  0
   20.5740   18.1270   21.3990 H   0  0  0  0  0
   20.4720   19.8880   21.4470 H   0  0  0  0  0
   19.1060   18.9570   20.0640 C   0  0  0  0  0
   18.5250   18.0380   19.9650 H   0  0  0  0  0
   19.7990   19.0160   19.2220 H   0  0  0  0  0
   18.4240   19.8090   20.0050 H   0  0  0  0  0
  1  2  1  0  0  0
  1  3  1  0  0  0
  1  4  1  0  0  0
  1  5  1  0  0  0
  5  6  1  0  0  0
  5  7  1  0  0  0
  5 11  1  0  0  0
  7  8  1  0  0  0
  7  9  1  0  0  0
  7 10  1  0  0  0
 11 12  1  0  0  0
 11 13  1  0  0  0
 11 14  1  0  0  0
 14 15  1  0  0  0
 14 16  1  0  0  0
 14 17  1  0  0  0
 17 18  1  0  0  0
 17 19  1  0  0  0
 17 20  1  0  0  0
M  END

$$$$
guest-s11
  -ISIS-            3D

 20 19  0  0  0  0  0  0  0  0999 V2000
   19.7470   18.9440   25.6460 N   0  3  0  0  0
   18.8440   19.4420   25.7070 H   0  0  0  0  0
   19.5460   17.9330   25.7090 H   0  0  0  0  0
   20.2910   19.1980   26.4870 H   0  0  0  0  0
   20.4920   19.2890   24.3760 C   0  0  0  0  0
   21.4450   18.7540   24.4000 H   0  0  0  0  0
   20.6960   20.3620   24.3990 H   0  0  0  0  0
   19.7230   18.9300   23.0900 C   0  0  0  0  0
   19.5110   17.8570   23.0790 H   0  0  0  0  0
   18.7660   19.4580   23.0770 H   0  0  0  0  0
   20.5420   19.3090   21.8400 C   0  0  0  0  0
   21.5000   18.7820   21.8560 H   0  0  0  0  0
   20.7550   20.3810   21.8540 H   0  0  0  0  0
   19.7830   18.9550   20.5420 C   0  0  0  0  0
   19.5700   17.8820   20.5220 H   0  0  0  0  0
   18.8270   19.4820   20.5200 H   0  0  0  0  0
   20.6010   19.3330   19.2940 C   0  0  0  0  0
   21.5520   18.7980   19.2790 H   0  0  0  0  0
   20.0480   19.0750   18.3880 H   0  0  0  0  0
   20.8050   20.4060   19.2770 H   0  0  0  0  0
  1  2  1  0  0  0
  1  3  1  0  0  0
  1  4  1  0  0  0
  1  5  1  0  0  0
  5  6  1  0  0  0
  5  7  1  0  0  0
  5  8  1  0  0  0
  8  9  1  0  0  0
  8 10  1  0  0  0
  8 11  1  0  0  0
 11 12  1  0  0  0
 11 13  1  0  0  0
 11 14  1  0  0  0
 14 15  1  0  0  0
 14 16  1  0  0  0
 14 17  1  0  0  0
 17 18  1  0  0  0
 17 19  1  0  0  0
 17 20  1  0  0  0
M  END

$$$$
guest-s12
  -ISIS-            3D

 26 25  0  0  0  0  0  0  0  0999 V2000
   19.9830   18.6330   26.4840 N   0  3  0  0  0
   20.8680   18.0970   26.5380 H   0  0  0  0  0
   19.2240   17.9280   26.4800 H   0  0  0  0  0
   19.9460   19.4370   25.2060 C   0  0  0  0  0
   20.7630   20.1610   25.2590 H   0  0  0  0  0
   18.9980   19.9800   25.1970 H   0  0  0  0  0
   20.0780   18.5880   23.9270 C   0  0  0  0  0
   21.0230   18.0380   23.9490 H   0  0  0  0  0
   19.2670   17.8570   23.8870 H   0  0  0  0  0
   20.0310   19.4840   22.6720 C   0  0  0  0  0
   20.8420   20.2160   22.7160 H   0  0  0  0  0
   19.0880   20.0360   22.6540 H   0  0  0  0  0
   20.1620   18.6470   21.3820 C   0  0  0  0  0
   21.1060   18.0950   21.3990 H   0  0  0  0  0
   19.3520   17.9150   21.3370 H   0  0  0  0  0
   20.1150   19.5440   20.1260 C   0  0  0  0  0
   20.9260   20.2760   20.1660 H   0  0  0  0  0
   19.1720   20.0960   20.1030 H   0  0  0  0  0
   20.2460   18.7100   18.8380 C   0  0  0  0  0
   21.1950   18.1680   18.8240 H   0  0  0  0  0
   20.2110   19.3610   17.9610 H   0  0  0  0  0
   19.4310   17.9870   18.7610 H   0  0  0  0  0
   19.8470   19.5470   27.6820 C   0  0  0  0  0
   18.8930   20.0760   27.6150 H   0  0  0  0  0
   19.8770   18.9410   28.5920 H   0  0  0  0  0
   20.6760   20.2600   27.6780 H   0  0  0  0  0
  1  2  1  0  0  0
  1  3  1  0  0  0
  1  4  1  0  0  0
  1 23  1  0  0  0
  4  5  1  0  0  0
  4  6  1  0  0  0
  4  7  1  0  0  0
  7  8  1  0  0  0
  7  9  1  0  0  0
  7 10  1  0  0  0
 10 11  1  0  0  0
 10 12  1  0  0  0
 10 13  1  0  0  0
 13 14  1  0  0  0
 13 15  1  0  0  0
 13 16  1  0  0  0
 16 17  1  0  0  0
 16 18  1  0  0  0
 16 19  1  0  0  0
 19 20  1  0  0  0
 19 21  1  0  0  0
 19 22  1  0  0  0
 23 24  1  0  0  0
 23 25  1  0  0  0
 23 26  1  0  0  0
M  END

$$$$
guest-s13
  -ISIS-            3D

 26 25  0  0  0  0  0  0  0  0999 V2000
   20.1510   18.6680   18.8340 C   0  0  0  0  0
   20.1350   19.3100   17.9510 H   0  0  0  0  0
   21.0750   18.0840   18.8170 H   0  0  0  0  0
   19.3040   17.9810   18.7750 H   0  0  0  0  0
   20.0710   19.5200   20.1150 C   0  0  0  0  0
   19.1530   20.1130   20.0950 H   0  0  0  0  0
   20.9140   20.2150   20.1370 H   0  0  0  0  0
   20.0930   18.6360   21.3780 C   0  0  0  0  0
   19.2500   17.9410   21.3500 H   0  0  0  0  0
   21.0100   18.0430   21.3940 H   0  0  0  0  0
   20.0110   19.4910   22.6620 C   0  0  0  0  0
   19.0910   20.0810   22.6460 H   0  0  0  0  0
   20.8520   20.1880   22.6810 H   0  0  0  0  0
   20.0310   18.6050   23.9260 C   0  0  0  0  0
   19.2130   17.8830   23.8610 H   0  0  0  0  0
   20.9640   18.0330   23.9630 H   0  0  0  0  0
   19.8710   19.4300   25.2240 C   0  0  1  0  0
   20.7170   20.1170   25.3090 H   0  0  0  0  0
   18.5720   20.2470   25.1470 C   0  0  0  0  0
   17.6980   19.5950   25.0630 H   0  0  0  0  0
   18.5870   20.9110   24.2780 H   0  0  0  0  0
   18.4520   20.8700   26.0370 H   0  0  0  0  0
   19.8880   18.5910   26.4680 N   0  3  0  0  0
   20.7740   18.0710   26.5640 H   0  0  0  0  0
   19.7830   19.1730   27.3140 H   0  0  0  0  0
   19.1200   17.9030   26.4690 H   0  0  0  0  0
  1  2  1  0  0  0
  1  3  1  0  0  0
  1  4  1  0  0  0
  1  5  1  0  0  0
  5  6  1  0  0  0
  5  7  1  0  0  0
  5  8  1  0  0  0
  8  9  1  0  0  0
  8 10  1  0  0  0
  8 11  1  0  0  0
 11 12  1  0  0  0
 11 13  1  0  0  0
 11 14  1  0  0  0
 14 15  1  0  0  0
 14 16  1  0  0  0
 14 17  1  0  0  0
 17 18  1  0  0  0
 17 19  1  0  0  0
 17 23  1  0  0  0
 19 20  1  0  0  0
 19 21  1  0  0  0
 19 22  1  0  0  0
 23 24  1  0  0  0
 23 25  1  0  0  0
 23 26  1  0  0  0
M  END

$$$$
guest-s14
  -ISIS-            3D

 26 25  0  0  0  0  0  0  0  0999 V2000
   19.9020   19.3140   18.8340 C   0  0  0  0  0
   18.8120   19.3590   18.7730 H   0  0  0  0  0
   20.2930   20.3350   18.8220 H   0  0  0  0  0
   20.2760   18.7930   17.9510 H   0  0  0  0  0
   20.3450   18.5790   20.1140 C   0  0  0  0  0
   21.4360   18.5250   20.1370 H   0  0  0  0  0
   19.9640   17.5550   20.0880 H   0  0  0  0  0
   19.8310   19.2940   21.3800 C   0  0  0  0  0
   20.2110   20.3190   21.3980 H   0  0  0  0  0
   18.7380   19.3480   21.3490 H   0  0  0  0  0
   20.2740   18.5560   22.6600 C   0  0  0  0  0
   21.3660   18.5020   22.6890 H   0  0  0  0  0
   19.8930   17.5320   22.6400 H   0  0  0  0  0
   19.7600   19.2720   23.9260 C   0  0  0  0  0
   20.1410   20.2960   23.9460 H   0  0  0  0  0
   18.6690   19.3250   23.8960 H   0  0  0  0  0
   20.2040   18.5340   25.2060 C   0  0  0  0  0
   21.2950   18.4820   25.2390 H   0  0  0  0  0
   19.8220   17.5100   25.1900 H   0  0  0  0  0
   19.6840   19.2590   26.4610 C   0  0  0  0  0
   20.0720   20.2810   26.4880 H   0  0  0  0  0
   18.5920   19.3050   26.4380 H   0  0  0  0  0
   20.0810   18.5910   27.7600 N   0  3  0  0  0
   21.1070   18.5400   27.8670 H   0  0  0  0  0
   19.7200   17.6250   27.8210 H   0  0  0  0  0
   19.7160   19.1020   28.5800 H   0  0  0  0  0
  1  2  1  0  0  0
  1  3  1  0  0  0
  1  4  1  0  0  0
  1  5  1  0  0  0
  5  6  1  0  0  0
  5  7  1  0  0  0
  5  8  1  0  0  0
  8  9  1  0  0  0
  8 10  1  0  0  0
  8 11  1  0  0  0
 11 12  1  0  0  0
 11 13  1  0  0  0
 11 14  1  0  0  0
 14 15  1  0  0  0
 14 16  1  0  0  0
 14 17  1  0  0  0
 17 18  1  0  0  0
 17 19  1  0  0  0
 17 20  1  0  0  0
 20 21  1  0  0  0
 20 22  1  0  0  0
 20 23  1  0  0  0
 23 24  1  0  0  0
 23 25  1  0  0  0
 23 26  1  0  0  0
M  END

$$$$
guest-s15
  -ISIS-            3D

 29 28  0  0  0  0  0  0  0  0999 V2000
   20.2510   19.3660   18.7380 C   0  0  0  0  0
   20.6440   20.3850   18.7250 H   0  0  0  0  0
   21.0910   18.6680   18.7420 H   0  0  0  0  0
   19.6790   19.2090   17.8200 H   0  0  0  0  0
   19.3540   19.1440   19.9680 C   0  0  0  0  0
   18.9510   18.1280   19.9420 H   0  0  0  0  0
   18.5070   19.8350   19.9270 H   0  0  0  0  0
   20.1370   19.3590   21.2800 C   0  0  0  0  0
   20.9830   18.6690   21.3160 H   0  0  0  0  0
   20.5380   20.3750   21.3010 H   0  0  0  0  0
   19.2360   19.1360   22.5140 C   0  0  0  0  0
   18.8340   18.1200   22.4910 H   0  0  0  0  0
   18.3900   19.8280   22.4770 H   0  0  0  0  0
   20.0200   19.3500   23.8250 C   0  0  0  0  0
   20.8650   18.6570   23.8620 H   0  0  0  0  0
   20.4250   20.3650   23.8390 H   0  0  0  0  0
   19.1170   19.1260   25.0600 C   0  0  0  0  0
   18.6860   18.1240   24.9970 H   0  0  0  0  0
   18.2870   19.8380   25.0440 H   0  0  0  0  0
   19.8980   19.2580   26.3870 C   0  0  2  0  0
   20.2900   20.2770   26.4640 H   0  0  0  0  0
   21.0790   18.2730   26.3780 C   0  0  0  0  0
   20.7320   17.2380   26.3020 H   0  0  0  0  0
   21.7400   18.4730   25.5320 H   0  0  0  0  0
   21.6720   18.3710   27.2900 H   0  0  0  0  0
   19.0440   19.0440   27.6040 N   0  3  0  0  0
   18.2730   19.7280   27.6560 H   0  0  0  0  0
   19.5960   19.1420   28.4710 H   0  0  0  0  0
   18.6240   18.1020   27.6100 H   0  0  0  0  0
  1  2  1  0  0  0
  1  3  1  0  0  0
  1  4  1  0  0  0
  1  5  1  0  0  0
  5  6  1  0  0  0
  5  7  1  0  0  0
  5  8  1  0  0  0
  8  9  1  0  0  0
  8 10  1  0  0  0
  8 11  1  0  0  0
 11 12  1  0  0  0
 11 13  1  0  0  0
 11 14  1  0  0  0
 14 15  1  0  0  0
 14 16  1  0  0  0
 14 17  1  0  0  0
 17 18  1  0  0  0
 17 19  1  0  0  0
 17 20  1  0  0  0
 20 21  1  0  0  0
 20 22  1  0  0  0
 20 26  1  0  0  0
 22 23  1  0  0  0
 22 24  1  0  0  0
 22 25  1  0  0  0
 26 27  1  0  0  0
 26 28  1  0  0  0
 26 29  1  0  0  0
M  END

$$$$
guest-s16
  -ISIS-            3D

 13 13  0  0  0  0  0  0  0  0999 V2000
   19.7090   18.9910   20.9340 C   0  0  0  0  0
   18.7700   19.3030   20.4620 H   0  0  0  0  0
   20.4370   18.7710   20.1470 H   0  0  0  0  0
   19.5570   17.9110   22.0500 C   0  0  0  0  0
   18.7600   17.1780   21.9030 H   0  0  0  0  0
   20.4800   17.3750   22.3010 H   0  0  0  0  0
   19.2140   19.1100   22.9830 C   0  0  0  0  0
   18.1700   19.4450   22.9200 H   0  0  0  0  0
   20.2030   19.9170   22.0890 C   0  0  0  0  0
   21.2620   19.8030   22.3470 H   0  0  0  0  0
   19.9850   20.9820   21.9770 H   0  0  0  0  0
   19.6300   18.9460   24.3300 O   0  0  0  0  0
   19.4440   19.8160   24.7890 H   0  0  0  0  0
  1  2  1  0  0  0
  1  3  1  0  0  0
  1  4  1  0  0  0
  1  9  1  0  0  0
  4  5  1  0  0  0
  4  6  1  0  0  0
  4  7  1  0  0  0
  7  8  1  0  0  0
  7  9  1  0  0  0
  7 12  1  0  0  0
  9 10  1  0  0  0
  9 11  1  0  0  0
 12 13  1  0  0  0
M  END

$$$$
guest-s17
  -ISIS-            3D

 25 25  0  0  0  0  0  0  0  0999 V2000
   19.7090   18.9910   20.9340 C   0  0  0  0  0
   18.8780   18.6770   21.5680 H   0  0  0  0  0
   19.3500   18.8590   19.9110 H   0  0  0  0  0
   20.9190   18.0450   21.1140 C   0  0  0  0  0
   20.5900   17.0400   20.8400 H   0  0  0  0  0
   21.7010   18.3160   20.3980 H   0  0  0  0  0
   21.5460   17.9640   22.5280 C   0  0  0  0  0
   22.2490   18.7830   22.6860 H   0  0  0  0  0
   22.1550   17.0590   22.5540 H   0  0  0  0  0
   20.5260   17.8860   23.6930 C   0  0  0  0  0
   19.5650   17.4940   23.3540 H   0  0  0  0  0
   20.9120   17.1500   24.4030 H   0  0  0  0  0
   20.3410   19.2180   24.4690 C   0  0  0  0  0
   21.3290   19.5850   24.7670 H   0  0  0  0  0
   19.6030   20.3480   23.7010 C   0  0  0  0  0
   18.6220   20.0130   23.3610 H   0  0  0  0  0
   19.4110   21.1560   24.4130 H   0  0  0  0  0
   20.4220   20.9640   22.5370 C   0  0  0  0  0
   21.4890   20.8080   22.6920 H   0  0  0  0  0
   20.2890   22.0480   22.5670 H   0  0  0  0  0
   19.9990   20.4990   21.1210 C   0  0  0  0  0
   20.7640   20.8100   20.4050 H   0  0  0  0  0
   19.0890   21.0410   20.8530 H   0  0  0  0  0
   19.5990   18.9280   25.6630 O   0  0  0  0  0
   19.6300   19.7410   26.2470 H   0  0  0  0  0
  1  2  1  0  0  0
  1  3  1  0  0  0
  1  4  1  0  0  0
  1 21  1  0  0  0
  4  5  1  0  0  0
  4  6  1  0  0  0
  4  7  1  0  0  0
  7  8  1  0  0  0
  7  9  1  0  0  0
  7 10  1  0  0  0
 10 11  1  0  0  0
 10 12  1  0  0  0
 10 13  1  0  0  0
 13 14  1  0  0  0
 13 15  1  0  0  0
 13 24  1  0  0  0
 15 16  1  0  0  0
 15 17  1  0  0  0
 15 18  1  0  0  0
 18 19  1  0  0  0
 18 20  1  0  0  0
 18 21  1  0  0  0
 21 22  1  0  0  0
 21 23  1  0  0  0
 24 25  1  0  0  0
M  END

$$$$
guest-s18
  -ISIS-            3D

 16 15  0  0  0  0  0  0  0  0999 V2000
   20.0180   19.3820   24.6550 C   0  0  0  0  0
   20.1320   20.5970   24.6490 O   0  5  0  0  0
   19.9590   18.7770   25.7120 O   0  0  0  0  0
   19.9450   18.5860   23.3520 C   0  0  0  0  0
   19.0070   18.0200   23.3300 H   0  0  0  0  0
   20.7600   17.8550   23.3340 H   0  0  0  0  0
   20.0300   19.4620   22.0820 C   0  0  0  0  0
   19.2100   20.1850   22.0780 H   0  0  0  0  0
   20.9700   20.0180   22.0810 H   0  0  0  0  0
   19.9510   18.6010   20.8030 C   0  0  0  0  0
   19.0120   18.0410   20.7930 H   0  0  0  0  0
   20.7680   17.8740   20.7970 H   0  0  0  0  0
   20.0350   19.4680   19.5350 C   0  0  0  0  0
   19.2120   20.1860   19.5030 H   0  0  0  0  0
   19.9770   18.8410   18.6430 H   0  0  0  0  0
   20.9780   20.0200   19.5060 H   0  0  0  0  0
  1  2  1  0  0  0
  1  3  2  0  0  0
  1  4  1  0  0  0
  4  5  1  0  0  0
  4  6  1  0  0  0
  4  7  1  0  0  0
  7  8  1  0  0  0
  7  9  1  0  0  0
  7 10  1  0  0  0
 10 11  1  0  0  0
 10 12  1  0  0  0
 10 13  1  0  0  0
 13 14  1  0  0  0
 13 15  1  0  0  0
 13 16  1  0  0  0
M  END

$$$$
guest-s19
  -ISIS-            3D

 17 16  0  0  0  0  0  0  0  0999 V2000
   19.7510   18.7630   25.2620 C   0  0  0  0  0
   19.1100   19.7120   25.6770 O   0  5  0  0  0
   20.0050   17.8050   25.9670 O   0  0  0  0  0
   20.2500   18.7520   23.8590 C   0  0  0  0  0
   20.8130   17.8650   23.5720 H   0  0  0  0  0
   20.0430   19.7440   22.9680 C   0  0  0  0  0
   19.4800   20.6350   23.2420 H   0  0  0  0  0
   20.5630   19.7020   21.5450 C   0  0  0  0  0
   21.5390   19.2120   21.5210 H   0  0  0  0  0
   20.7050   20.7240   21.1850 H   0  0  0  0  0
   19.5880   18.9590   20.6060 C   0  0  0  0  0
   19.4460   17.9340   20.9560 H   0  0  0  0  0
   18.6140   19.4530   20.6240 H   0  0  0  0  0
   20.1150   18.9310   19.1580 C   0  0  0  0  0
   21.0790   18.4190   19.1080 H   0  0  0  0  0
   19.4130   18.4020   18.5120 H   0  0  0  0  0
   20.2410   19.9450   18.7730 H   0  0  0  0  0
  1  2  1  0  0  0
  1  3  2  0  0  0
  1  4  1  0  0  0
  4  5  1  0  0  0
  4  6  2  0  0  0
  6  7  1  0  0  0
  6  8  1  0  0  0
  8  9  1  0  0  0
  8 10  1  0  0  0
  8 11  1  0  0  0
 11 12  1  0  0  0
 11 13  1  0  0  0
 11 14  1  0  0  0
 14 15  1  0  0  0
 14 16  1  0  0  0
 14 17  1  0  0  0
M  END

$$$$
guest-s20
  -ISIS-            3D

 17 16  0  0  0  0  0  0  0  0999 V2000
   20.0990   18.9760   25.3640 C   0  0  0  0  0
   21.2190   19.2430   25.7720 O   0  5  0  0  0
   19.1120   19.2560   26.0270 O   0  0  0  0  0
   19.9360   18.2860   24.0080 C   0  0  0  0  0
   18.9450   17.8270   23.9380 H   0  0  0  0  0
   20.6590   17.4660   23.9330 H   0  0  0  0  0
   20.1550   19.2410   22.8490 C   0  0  0  0  0
   20.3910   20.2680   23.1260 H   0  0  0  0  0
   20.0690   18.8860   21.5710 C   0  0  0  0  0
   19.8330   17.8580   21.2980 H   0  0  0  0  0
   20.2860   19.8380   20.4150 C   0  0  0  0  0
   19.5800   20.6710   20.4710 H   0  0  0  0  0
   21.2920   20.2610   20.4760 H   0  0  0  0  0
   20.1170   19.1260   19.0610 C   0  0  0  0  0
   19.1090   18.7160   18.9640 H   0  0  0  0  0
   20.2830   19.8280   18.2410 H   0  0  0  0  0
   20.8360   18.3090   18.9640 H   0  0  0  0  0
  1  2  1  0  0  0
  1  3  2  0  0  0
  1  4  1  0  0  0
  4  5  1  0  0  0
  4  6  1  0  0  0
  4  7  1  0  0  0
  7  8  1  0  0  0
  7  9  2  0  0  0
  9 10  1  0  0  0
  9 11  1  0  0  0
 11 12  1  0  0  0
 11 13  1  0  0  0
 11 14  1  0  0  0
 14 15  1  0  0  0
 14 16  1  0  0  0
 14 17  1  0  0  0
M  END

$$$$
guest-s21
  -ISIS-            3D

 22 21  0  0  0  0  0  0  0  0999 V2000
   19.8240   19.1120   26.1840 C   0  0  0  0  0
   20.5500   20.0920   26.2290 O   0  5  0  0  0
   19.4190   18.6080   27.2180 O   0  0  0  0  0
   19.4030   18.4890   24.8490 C   0  0  0  0  0
   18.3100   18.4880   24.7790 H   0  0  0  0  0
   19.7220   17.4410   24.8220 H   0  0  0  0  0
   19.9800   19.2160   23.6110 C   0  0  0  0  0
   19.6520   20.2600   23.6120 H   0  0  0  0  0
   21.0710   19.2060   23.6550 H   0  0  0  0  0
   19.5180   18.5400   22.3030 C   0  0  0  0  0
   18.4260   18.5470   22.2540 H   0  0  0  0  0
   19.8420   17.4970   22.2970 H   0  0  0  0  0
   20.0920   19.2640   21.0670 C   0  0  0  0  0
   19.7680   20.3070   21.0720 H   0  0  0  0  0
   21.1840   19.2570   21.1150 H   0  0  0  0  0
   19.6310   18.5890   19.7590 C   0  0  0  0  0
   18.5390   18.5950   19.7050 H   0  0  0  0  0
   19.9550   17.5460   19.7480 H   0  0  0  0  0
   20.2030   19.3090   18.5240 C   0  0  0  0  0
   19.8710   20.3500   18.4950 H   0  0  0  0  0
   19.8650   18.8170   17.6090 H   0  0  0  0  0
   21.2950   19.2930   18.5380 H   0  0  0  0  0
  1  2  1  0  0  0
  1  3  2  0  0  0
  1  4  1  0  0  0
  4  5  1  0  0  0
  4  6  1  0  0  0
  4  7  1  0  0  0
  7  8  1  0  0  0
  7  9  1  0  0  0
  7 10  1  0  0  0
 10 11  1  0  0  0
 10 12  1  0  0  0
 10 13  1  0  0  0
 13 14  1  0  0  0
 13 15  1  0  0  0
 13 16  1  0  0  0
 16 17  1  0  0  0
 16 18  1  0  0  0
 16 19  1  0  0  0
 19 20  1  0  0  0
 19 21  1  0  0  0
 19 22  1  0  0  0
M  END

$$$$
guest-s22
  -ISIS-            3D

 20 19  0  0  0  0  0  0  0  0999 V2000
   20.8650   18.6510   18.3910 C   0  0  0  0  0
   21.4350   17.7710   18.6930 H   0  0  0  0  0
   21.1450   19.1220   17.4480 H   0  0  0  0  0
   19.8760   19.1320   19.1350 C   0  0  0  0  0
   19.3230   20.0140   18.8100 H   0  0  0  0  0
   19.4370   18.5260   20.4520 C   0  0  0  0  0
   19.8790   17.5340   20.5790 H   0  0  0  0  0
   18.3520   18.4010   20.4470 H   0  0  0  0  0
   19.8440   19.4210   21.6410 C   0  0  0  0  0
   20.9290   19.5480   21.6460 H   0  0  0  0  0
   19.3960   20.4100   21.5210 H   0  0  0  0  0
   19.3900   18.8090   22.9840 C   0  0  0  0  0
   19.8380   17.8190   23.1050 H   0  0  0  0  0
   18.3050   18.6820   22.9780 H   0  0  0  0  0
   19.7970   19.7040   24.1730 C   0  0  0  0  0
   20.8830   19.8400   24.1740 H   0  0  0  0  0
   19.3560   20.6990   24.0480 H   0  0  0  0  0
   19.3410   19.0870   25.4950 C   0  0  0  0  0
   20.0820   18.3260   26.0950 O   0  5  0  0  0
   18.2390   19.3620   25.9420 O   0  0  0  0  0
  1  2  1  0  0  0
  1  3  1  0  0  0
  1  4  2  0  0  0
  4  5  1  0  0  0
  4  6  1  0  0  0
  6  7  1  0  0  0
  6  8  1  0  0  0
  6  9  1  0  0  0
  9 10  1  0  0  0
  9 11  1  0  0  0
  9 12  1  0  0  0
 12 13  1  0  0  0
 12 14  1  0  0  0
 12 15  1  0  0  0
 15 16  1  0  0  0
 15 17  1  0  0  0
 15 18  1  0  0  0
 18 19  1  0  0  0
 18 20  2  0  0  0
M  END

$$$$
