CBClip
  DSViewer          3D                             0

138148  0  0  0  0  0  0  0  0999 V2000
   -1.1320    0.8820    1.9290 C   0  0  1  0  0  0  0  0  0  1
   -1.7520   -0.1700    2.9560 C   0  0  2  0  0  0  0  0  0  2
   -0.7930    2.0060    2.7630 N   0  0  0  0  0  0  0  0  0  3
   -1.4250    0.4300    4.2470 N   0  0  0  0  0  0  0  0  0  4
    0.0590    0.2170    1.4440 N   0  0  0  0  0  0  0  0  0  5
   -0.9670   -1.3670    2.6890 N   0  0  0  0  0  0  0  0  0  6
   -0.8900    1.7020    4.1070 C   0  0  0  0  0  0  0  0  0  7
    0.1080   -1.1030    1.8500 C   0  0  0  0  0  0  0  0  0  8
   -0.5660    2.4480    5.0210 O   0  0  0  0  0  0  0  0  0  9
    0.9710   -1.9060    1.5230 O   0  0  0  0  0  0  0  0  0 10
   -1.8670   -0.0560    5.5260 C   0  0  0  0  0  0  0  0  0 11
   -2.9220   -0.3330    5.4770 H   0  0  0  0  0  0  0  0  0 12
   -1.8240    0.7700    6.2460 H   0  0  0  0  0  0  0  0  0 13
   -0.0110    3.1170    2.2830 C   0  0  0  0  0  0  0  0  0 14
   -0.3580    3.4170    1.2890 H   0  0  0  0  0  0  0  0  0 15
   -0.2320    3.9640    2.9390 H   0  0  0  0  0  0  0  0  0 16
    1.0630    0.8730    0.6160 C   0  0  0  0  0  0  0  0  0 17
    1.6410    0.0760    0.1390 H   0  0  0  0  0  0  0  0  0 18
    0.5720    1.4260   -0.1900 H   0  0  0  0  0  0  0  0  0 19
    1.9820    1.8050    1.3850 C   0  0  0  0  0  0  0  0  0 20
    3.3830    1.7110    1.2340 C   0  0  0  0  0  0  0  0  0 21
    2.3720    3.5950    2.9940 C   0  0  0  0  0  0  0  0  0 22
    4.2880    2.4670    2.0210 C   0  0  0  0  0  0  0  0  0 23
    1.4720    2.8160    2.2320 C   0  0  0  0  0  0  0  0  0 24
    3.7730    3.4110    2.9360 C   0  0  0  0  0  0  0  0  0 25
    5.6890    2.3120    1.9310 C   0  0  0  0  0  0  0  0  0 26
    4.3160    4.8440    4.4840 H   0  0  0  0  0  0  0  0  0 27
    6.5650    3.0700    2.7080 C   0  0  0  0  0  0  0  0  0 28
    6.1220    1.5740    1.2610 H   0  0  0  0  0  0  0  0  0 29
    7.6390    2.9270    2.6110 H   0  0  0  0  0  0  0  0  0 30
    6.0600    3.9790    3.6230 C   0  0  0  0  0  0  0  0  0 31
    6.7370    4.5630    4.2420 H   0  0  0  0  0  0  0  0  0 32
    4.6810    4.1360    3.7450 C   0  0  0  0  0  0  0  0  0 33
    3.9100    0.8540    0.2840 O   0  0  0  0  0  0  0  0  0 34
    1.8390    4.4870    3.8990 O   0  0  0  0  0  0  0  0  0 35
    3.9190    1.4810   -1.0080 C   0  0  0  0  0  0  0  0  0 36
    3.7510    2.5650   -0.9420 H   0  0  0  0  0  0  0  0  0 37
    3.1000    1.0560   -1.6000 H   0  0  0  0  0  0  0  0  0 38
    5.2500    1.2460   -1.7180 C   0  0  0  0  0  0  0  0  0 39
    5.2440    1.8460   -2.6360 H   0  0  0  0  0  0  0  0  0 40
    6.0740    1.6170   -1.0990 H   0  0  0  0  0  0  0  0  0 41
    5.5150   -0.2030   -2.1140 C   0  0  0  0  0  0  0  0  0 42
    4.6060   -0.7840   -1.9210 H   0  0  0  0  0  0  0  0  0 43
    6.3370   -0.6400   -1.5390 H   0  0  0  0  0  0  0  0  0 44
    1.8420    5.8290    3.4110 C   0  0  0  0  0  0  0  0  0 45
    2.8330    6.2760    3.5360 H   0  0  0  0  0  0  0  0  0 46
    1.5810    5.8610    2.3450 H   0  0  0  0  0  0  0  0  0 47
    0.8130    6.6430    4.1930 C   0  0  0  0  0  0  0  0  0 48
    1.3290    7.3180    4.8840 H   0  0  0  0  0  0  0  0  0 49
    0.2440    5.9390    4.8130 H   0  0  0  0  0  0  0  0  0 50
   -0.1810    7.4180    3.3290 C   0  0  0  0  0  0  0  0  0 51
   -0.5510    6.8100    2.4980 H   0  0  0  0  0  0  0  0  0 52
   -1.0410    7.6860    3.9550 H   0  0  0  0  0  0  0  0  0 53
    5.8780   -0.4260   -3.8510 S   0  0  0  0  0  0  0  0  0 54
    4.8560    0.1790   -4.6710 O   0  0  0  0  0  0  0  0  0 55
    7.2910   -0.2270   -4.1150 O   0  0  0  0  0  0  0  0  0 56
    0.3820    8.9760    2.6320 S   0  0  0  0  0  0  0  0  0 57
    1.2290    8.7630    1.4730 O   0  0  0  0  0  0  0  0  0 58
   -0.7360    9.8870    2.5480 O   0  0  0  0  0  0  0  0  0 59
    5.6130   -2.0140   -3.9280 O   0  5  0  0  0  0  0  0  0 60
    1.3400    9.4840    3.8230 O   0  5  0  0  0  0  0  0  0 61
   -0.3730   -3.2690    6.8540 C   0  0  1  0  0  0  0  0  0 62
   -1.3140   -2.5540    5.7790 C   0  0  2  0  0  0  0  0  0 63
    0.6900   -3.8310    6.0530 N   0  0  0  0  0  0  0  0  0 64
   -0.7160   -2.9610    4.5140 N   0  0  0  0  0  0  0  0  0 65
    0.1360   -2.1750    7.6410 N   0  0  0  0  0  0  0  0  0 66
   -1.0820   -1.1400    6.0530 N   0  0  0  0  0  0  0  0  0 67
    0.4600   -3.6790    4.6980 C   0  0  0  0  0  0  0  0  0 68
   -0.1780   -0.9490    7.0890 C   0  0  0  0  0  0  0  0  0 69
    1.1810   -4.0940    3.8030 O   0  0  0  0  0  0  0  0  0 70
    0.2760    0.1260    7.4600 O   0  0  0  0  0  0  0  0  0 71
   -1.2580   -2.6840    3.2060 C   0  0  0  0  0  0  0  0  0 72
   -2.3350   -2.8630    3.2020 H   0  0  0  0  0  0  0  0  0 73
   -0.8310   -3.4120    2.5050 H   0  0  0  0  0  0  0  0  0 74
    1.8680   -4.4520    6.6270 C   0  0  0  0  0  0  0  0  0 75
    1.5620   -5.1660    7.3990 H   0  0  0  0  0  0  0  0  0 76
    2.3190   -5.0500    5.8300 H   0  0  0  0  0  0  0  0  0 77
    1.1170   -2.3480    8.6860 C   0  0  0  0  0  0  0  0  0 78
    1.0230   -1.4690    9.3310 H   0  0  0  0  0  0  0  0  0 79
    0.8510   -3.2090    9.3090 H   0  0  0  0  0  0  0  0  0 80
    2.5360   -2.5110    8.1870 C   0  0  0  0  0  0  0  0  0 81
    3.5620   -1.7180    8.7610 C   0  0  0  0  0  0  0  0  0 82
    4.2530   -3.6360    6.8900 C   0  0  0  0  0  0  0  0  0 83
    4.9190   -1.8250    8.3730 C   0  0  0  0  0  0  0  0  0 84
    2.8850   -3.4900    7.2250 C   0  0  0  0  0  0  0  0  0 85
    5.2720   -2.8020    7.4200 C   0  0  0  0  0  0  0  0  0 86
    6.9330   -3.6240    6.2750 H   0  0  0  0  0  0  0  0  0 87
    7.2680   -1.1300    8.5220 C   0  0  0  0  0  0  0  0  0 88
    8.0310   -0.4850    8.9510 H   0  0  0  0  0  0  0  0  0 89
    7.6160   -2.0880    7.5840 C   0  0  0  0  0  0  0  0  0 90
    6.6280   -2.9030    7.0310 C   0  0  0  0  0  0  0  0  0 91
    3.2200   -0.7480    9.6850 O   0  0  0  0  0  0  0  0  0 92
    4.5950   -4.5750    5.9390 O   0  0  0  0  0  0  0  0  0 93
    3.2940   -1.2660   11.0200 C   0  0  0  0  0  0  0  0  0 94
    4.3270   -1.5260   11.2780 H   0  0  0  0  0  0  0  0  0 95
    2.6820   -2.1730   11.1080 H   0  0  0  0  0  0  0  0  0 96
    2.7540   -0.2230   12.0000 C   0  0  0  0  0  0  0  0  0 97
    3.4790   -0.0650   12.8060 H   0  0  0  0  0  0  0  0  0 98
    2.6650    0.7210   11.4500 H   0  0  0  0  0  0  0  0  0 99
    1.3770   -0.5730   12.5590 C   0  0  0  0  0  0  0  0  0100
    0.8360   -1.2740   11.9170 H   0  0  0  0  0  0  0  0  0101
    0.7690    0.3360   12.6410 H   0  0  0  0  0  0  0  0  0102
    5.0330   -5.8040    6.5440 C   0  0  0  0  0  0  0  0  0103
    5.9120   -5.6370    7.1770 H   0  0  0  0  0  0  0  0  0104
    4.2300   -6.2340    7.1550 H   0  0  0  0  0  0  0  0  0105
    5.3820   -6.7450    5.4000 C   0  0  0  0  0  0  0  0  0106
    6.0790   -6.2380    4.7210 H   0  0  0  0  0  0  0  0  0107
    4.4810   -6.9330    4.8020 H   0  0  0  0  0  0  0  0  0108
    5.9840   -8.0520    5.8890 C   0  0  0  0  0  0  0  0  0109
    6.9290   -7.8700    6.4120 H   0  0  0  0  0  0  0  0  0110
    5.3120   -8.5860    6.5670 H   0  0  0  0  0  0  0  0  0111
    1.3910   -1.2770   14.2060 S   0  0  0  0  0  0  0  0  0112
    0.0360   -1.3680   14.6940 O   0  0  0  0  0  0  0  0  0113
    2.2900   -2.4110   14.2890 O   0  0  0  0  0  0  0  0  0114
    6.3630   -9.1510    4.5280 S   0  0  0  0  0  0  0  0  0115
    6.9640   -8.4000    3.4500 O   0  0  0  0  0  0  0  0  0116
    6.9310  -10.3730    5.0440 O   0  0  0  0  0  0  0  0  0117
    2.0680   -0.0470   14.9960 O   0  5  0  0  0  0  0  0  0118
    4.8500   -9.5160    4.1010 O   0  5  0  0  0  0  0  0  0119
    5.6920   -0.2220    9.6280 H   0  0  0  0  0  0  0  0  0120
    5.9350   -0.9930    8.9020 C   0  0  0  0  0  0  0  0  0121
   -1.0690   -4.3390    7.7070 C   0  0  0  0  0  0  0  0  0122
   -0.3830   -4.8150    8.4150 H   0  0  0  0  0  0  0  0  0123
   -1.4730   -5.1450    7.0850 H   0  0  0  0  0  0  0  0  0124
   -1.8790   -3.9120    8.3060 H   0  0  0  0  0  0  0  0  0125
   -2.7900   -2.9560    5.8980 C   0  0  0  0  0  0  0  0  0126
   -2.9290   -4.0300    5.7400 H   0  0  0  0  0  0  0  0  0127
   -3.4160   -2.4610    5.1530 H   0  0  0  0  0  0  0  0  0128
   -3.2000   -2.6850    6.8770 H   0  0  0  0  0  0  0  0  0129
   -3.2630   -0.3720    2.7760 C   0  0  0  0  0  0  0  0  0130
   -3.5010   -0.7850    1.7910 H   0  0  0  0  0  0  0  0  0131
   -3.8080    0.5690    2.9060 H   0  0  0  0  0  0  0  0  0132
   -3.6770   -1.0700    3.5060 H   0  0  0  0  0  0  0  0  0133
   -2.0590    1.2710    0.7690 C   0  0  0  0  0  0  0  0  0134
   -1.5800    1.9700    0.0760 H   0  0  0  0  0  0  0  0  0135
   -2.9660    1.7690    1.1260 H   0  0  0  0  0  0  0  0  0136
   -2.3460    0.3950    0.1760 H   0  0  0  0  0  0  0  0  0137
    8.6510   -2.1940    7.2680 H   0  0  0  0  0  0  0  0  0138
  1  2  1  0  0  0
  1  3  1  0  0  0
  1  5  1  0  0  0
  1134  1  0  0  0
  2  4  1  0  0  0
  2  6  1  0  0  0
  2130  1  0  0  0
  3  7  1  0  0  0
  3 14  1  0  0  0
  4  7  1  0  0  0
  4 11  1  0  0  0
  5  8  1  0  0  0
  5 17  1  0  0  0
  6  8  1  0  0  0
  6 72  1  0  0  0
  7  9  2  0  0  0
  8 10  2  0  0  0
 11 12  1  0  0  0
 11 13  1  0  0  0
 11 67  1  0  0  0
 14 15  1  0  0  0
 14 16  1  0  0  0
 14 24  1  0  0  0
 17 18  1  0  0  0
 17 19  1  0  0  0
 17 20  1  0  0  0
 20 21  2  0  0  0
 20 24  1  0  0  0
 21 23  1  0  0  0
 21 34  1  0  0  0
 22 24  2  0  0  0
 22 25  1  0  0  0
 22 35  1  0  0  0
 23 25  2  0  0  0
 23 26  1  0  0  0
 25 33  1  0  0  0
 26 28  2  0  0  0
 26 29  1  0  0  0
 27 33  1  0  0  0
 28 31  1  0  0  0
 28 30  1  0  0  0
 31 33  2  0  0  0
 31 32  1  0  0  0
 34 36  1  0  0  0
 35 45  1  0  0  0
 36 37  1  0  0  0
 36 38  1  0  0  0
 36 39  1  0  0  0
 39 40  1  0  0  0
 39 41  1  0  0  0
 39 42  1  0  0  0
 42 43  1  0  0  0
 42 44  1  0  0  0
 42 54  1  0  0  0
 45 46  1  0  0  0
 45 47  1  0  0  0
 45 48  1  0  0  0
 48 49  1  0  0  0
 48 50  1  0  0  0
 48 51  1  0  0  0
 51 52  1  0  0  0
 51 53  1  0  0  0
 51 57  1  0  0  0
 54 55  2  0  0  0
 54 56  2  0  0  0
 54 60  1  0  0  0
 57 58  2  0  0  0
 57 59  2  0  0  0
 57 61  1  0  0  0
 62 63  1  0  0  0
 62 64  1  0  0  0
 62 66  1  0  0  0
 62122  1  0  0  0
 63 65  1  0  0  0
 63 67  1  0  0  0
 63126  1  0  0  0
 64 68  1  0  0  0
 64 75  1  0  0  0
 65 68  1  0  0  0
 65 72  1  0  0  0
 66 69  1  0  0  0
 66 78  1  0  0  0
 67 69  1  0  0  0
 68 70  2  0  0  0
 69 71  2  0  0  0
 72 73  1  0  0  0
 72 74  1  0  0  0
 75 76  1  0  0  0
 75 77  1  0  0  0
 75 85  1  0  0  0
 78 79  1  0  0  0
 78 80  1  0  0  0
 78 81  1  0  0  0
 81 82  2  0  0  0
 81 85  1  0  0  0
 82 84  1  0  0  0
 82 92  1  0  0  0
 83 85  2  0  0  0
 83 86  1  0  0  0
 83 93  1  0  0  0
 84 86  2  0  0  0
 84121  1  0  0  0
 86 91  1  0  0  0
 87 91  1  0  0  0
 88 90  1  0  0  0
 88 89  1  0  0  0
 88121  2  0  0  0
 90 91  2  0  0  0
 90138  1  0  0  0
 92 94  1  0  0  0
 93103  1  0  0  0
 94 95  1  0  0  0
 94 96  1  0  0  0
 94 97  1  0  0  0
 97 98  1  0  0  0
 97 99  1  0  0  0
 97100  1  0  0  0
100101  1  0  0  0
100102  1  0  0  0
100112  1  0  0  0
103104  1  0  0  0
103105  1  0  0  0
103106  1  0  0  0
106107  1  0  0  0
106108  1  0  0  0
106109  1  0  0  0
109110  1  0  0  0
109111  1  0  0  0
109115  1  0  0  0
112113  2  0  0  0
112114  2  0  0  0
112118  1  0  0  0
115116  2  0  0  0
115117  2  0  0  0
115119  1  0  0  0
120121  1  0  0  0
122123  1  0  0  0
122124  1  0  0  0
122125  1  0  0  0
126127  1  0  0  0
126128  1  0  0  0
126129  1  0  0  0
130131  1  0  0  0
130132  1  0  0  0
130133  1  0  0  0
134135  1  0  0  0
134136  1  0  0  0
134137  1  0  0  0
M  CHG  4  60  -1  61  -1 118  -1 119  -1
M  END
