BCD.sdf
  -ISIS-            3D

147154  0  0  0  0  0  0  0  0  0 V2000
  -10.6950   -3.0480    2.0180 C   0  0  1  0  0
   -9.8220   -2.5570    0.8350 C   0  0  1  0  0
  -10.2920   -3.1690   -0.3840 O   0  0  0  0  0
   -8.3470   -2.8400    1.0900 C   0  0  1  0  0
   -7.5390   -2.2390    0.0550 O   0  0  0  0  0
   -7.9190   -2.2960    2.4400 C   0  0  2  0  0
   -6.6110   -2.8200    2.6940 O   0  0  0  0  0
   -8.8440   -2.7560    3.5600 C   0  0  1  0  0
  -10.2330   -2.4020    3.2040 O   0  0  0  0  0
   -8.6060   -2.1230    4.9100 C   0  0  0  0  0
   -9.4680   -2.7520    5.8720 O   0  0  0  0  0
   -5.6130   -1.9530    3.1330 C   0  0  1  0  0
   -4.3330   -2.1330    2.3090 C   0  0  1  0  0
   -4.6760   -1.9710    0.9240 O   0  0  0  0  0
   -3.6860   -3.4610    2.6470 C   0  0  1  0  0
   -2.4550   -3.5710    1.9090 O   0  0  0  0  0
   -3.3950   -3.5320    4.1440 C   0  0  2  0  0
   -2.8410   -4.8180    4.4360 O   0  0  0  0  0
   -4.6860   -3.1070    4.9290 C   0  0  1  0  0
   -5.3440   -2.1600    4.5110 O   0  0  0  0  0
   -4.5490   -3.3150    6.4150 C   0  0  0  0  0
   -5.8830   -3.6210    6.8080 O   0  0  0  0  0
   -1.5170   -5.0010    4.8570 C   0  0  1  0  0
   -0.9320   -6.2110    4.1280 C   0  0  1  0  0
   -1.1370   -6.0340    2.6980 O   0  0  0  0  0
   -1.6250   -7.4800    4.5730 C   0  0  1  0  0
   -1.0470   -8.6020    3.8750 O   0  0  0  0  0
   -1.5530   -7.6420    6.0700 C   0  0  2  0  0
   -2.3690   -8.7420    6.4180 O   0  0  0  0  0
   -2.1420   -6.4000    6.7420 C   0  0  1  0  0
   -1.4930   -5.2340    6.2620 O   0  0  0  0  0
   -1.9160   -6.4540    8.2750 C   0  0  0  0  0
   -2.0990   -5.2980    8.9830 O   0  0  0  0  0
   -1.9640   -9.6470    7.4370 C   0  0  1  0  0
   -1.4020  -10.9030    6.6990 C   0  0  1  0  0
   -0.2480  -10.5840    5.9470 O   0  0  0  0  0
   -2.5190  -11.4120    5.7910 C   0  0  1  0  0
   -2.0540  -12.4780    4.9600 O   0  0  0  0  0
   -3.6900  -11.8180    6.6560 C   0  0  2  0  0
   -4.7810  -12.1550    5.7750 O   0  0  0  0  0
   -4.1380  -10.6300    7.5090 C   0  0  1  0  0
   -3.0730  -10.0040    8.1990 O   0  0  0  0  0
   -5.1020  -11.1490    8.6340 C   0  0  0  0  0
   -5.3900  -10.0380    9.4710 O   0  0  0  0  0
   -5.4190  -13.4140    5.9450 C   0  0  1  0  0
   -5.7070  -13.9940    4.5760 C   0  0  1  0  0
   -4.5460  -13.9810    3.7250 O   0  0  0  0  0
   -6.8000  -13.1720    3.8860 C   0  0  1  0  0
   -7.1710  -13.7860    2.6400 O   0  0  0  0  0
   -8.0100  -13.0900    4.7800 C   0  0  2  0  0
   -8.9300  -12.1900    4.1140 O   0  0  0  0  0
   -7.6650  -12.4980    6.1690 C   0  0  1  0  0
   -6.5710  -13.2550    6.7330 O   0  0  0  0  0
   -8.8180  -12.6370    7.0860 C   0  0  0  0  0
   -8.7060  -11.8450    8.2420 O   0  0  0  0  0
  -10.3040  -12.5900    4.0180 C   0  0  1  0  0
  -10.7130  -12.4470    2.5990 C   0  0  1  0  0
   -9.6330  -12.9430    1.7880 O   0  0  0  0  0
  -10.9590  -10.9960    2.1830 C   0  0  1  0  0
  -11.7980  -11.0370    0.9790 O   0  0  0  0  0
  -11.6080  -10.1620    3.1870 C   0  0  2  0  0
  -11.3420   -8.7810    2.7660 O   0  0  0  0  0
  -11.0290  -10.3520    4.5810 C   0  0  1  0  0
  -11.0920  -11.7660    4.8710 O   0  0  0  0  0
  -11.7720   -9.6570    5.7260 C   0  0  0  0  0
  -12.3790  -10.5400    6.4270 O   0  0  0  0  0
  -12.4610   -8.1300    2.1450 C   0  0  1  0  0
  -12.0230   -7.6210    0.7920 C   0  0  1  0  0
  -11.2760   -8.6550    0.1070 O   0  0  0  0  0
  -11.1320   -6.3900    0.8920 C   0  0  1  0  0
  -11.0490   -5.7760   -0.4110 O   0  0  0  0  0
  -11.6700   -5.3440    1.8830 C   0  0  2  0  0
  -10.5540   -4.4430    2.0510 O   0  0  0  0  0
  -11.9100   -6.0450    3.2250 C   0  0  1  0  0
  -12.8880   -7.1120    3.0020 O   0  0  0  0  0
  -12.5450   -5.1110    4.2550 C   0  0  0  0  0
  -11.8470   -5.3380    5.4800 O   0  0  0  0  0
  -11.7770   -2.8010    1.9180 H   0  0  0  0  0
   -9.9160   -1.4500    0.7320 H   0  0  0  0  0
   -9.7570   -2.8680   -1.1090 H   0  0  0  0  0
   -8.2010   -3.9450    1.0830 H   0  0  0  0  0
   -6.6190   -2.4150    0.2140 H   0  0  0  0  0
   -7.9450   -1.1810    2.4150 H   0  0  0  0  0
   -8.6440   -3.8490    3.6530 H   0  0  0  0  0
   -7.5330   -2.1540    5.2130 H   0  0  0  0  0
   -8.7270   -1.0140    4.8880 H   0  0  0  0  0
   -9.3180   -2.3530    6.7210 H   0  0  0  0  0
   -5.9760   -0.9080    2.9930 H   0  0  0  0  0
   -3.5630   -1.3640    2.5510 H   0  0  0  0  0
   -3.8820   -2.0820    0.4130 H   0  0  0  0  0
   -4.3720   -4.2960    2.3750 H   0  0  0  0  0
   -2.0490   -4.4030    2.1200 H   0  0  0  0  0
   -2.6180   -2.8090    4.4870 H   0  0  0  0  0
   -5.4590   -3.8520    4.6300 H   0  0  0  0  0
   -3.7870   -4.0720    6.7140 H   0  0  0  0  0
   -4.0810   -2.4660    6.9650 H   0  0  0  0  0
   -5.7960   -3.7520    7.7440 H   0  0  0  0  0
   -0.9150   -4.0910    4.6260 H   0  0  0  0  0
    0.1550   -6.2930    4.3620 H   0  0  0  0  0
   -0.7730   -6.7850    2.2450 H   0  0  0  0  0
   -2.7080   -7.4240    4.3160 H   0  0  0  0  0
   -1.4820   -9.3980    4.1540 H   0  0  0  0  0
   -0.4950   -7.7890    6.3920 H   0  0  0  0  0
   -3.2320   -6.3730    6.5090 H   0  0  0  0  0
   -2.5510   -7.2580    8.7120 H   0  0  0  0  0
   -0.8960   -6.8550    8.4830 H   0  0  0  0  0
   -1.9600   -5.3310    9.9220 H   0  0  0  0  0
   -1.2010   -9.1980    8.1150 H   0  0  0  0  0
   -1.0930  -11.6840    7.4320 H   0  0  0  0  0
    0.0930  -11.3480    5.4980 H   0  0  0  0  0
   -2.8530  -10.6050    5.0970 H   0  0  0  0  0
   -2.7490  -12.7940    4.3950 H   0  0  0  0  0
   -3.4010  -12.6710    7.3130 H   0  0  0  0  0
   -4.6080   -9.9050    6.8040 H   0  0  0  0  0
   -6.0160  -11.6470    8.2340 H   0  0  0  0  0
   -4.6960  -12.0250    9.1900 H   0  0  0  0  0
   -5.9730  -10.3520   10.1510 H   0  0  0  0  0
   -4.7620  -14.1340    6.4860 H   0  0  0  0  0
   -6.0290  -15.0500    4.7320 H   0  0  0  0  0
   -4.7260  -14.3440    2.8660 H   0  0  0  0  0
   -6.4080  -12.1470    3.6860 H   0  0  0  0  0
   -7.8480  -13.2760    2.2120 H   0  0  0  0  0
   -8.4300  -14.1090    4.9470 H   0  0  0  0  0
   -7.4010  -11.4210    6.0470 H   0  0  0  0  0
   -9.7750  -12.4280    6.5530 H   0  0  0  0  0
   -8.9850  -13.7060    7.3520 H   0  0  0  0  0
   -9.4460  -11.9340    8.8300 H   0  0  0  0  0
  -10.4470  -13.6470    4.3400 H   0  0  0  0  0
  -11.6670  -13.0070    2.4650 H   0  0  0  0  0
   -9.8940  -12.8510    0.8790 H   0  0  0  0  0
   -9.9610  -10.5240    2.0190 H   0  0  0  0  0
  -11.9500  -10.1350    0.7200 H   0  0  0  0  0
  -12.6900  -10.4230    3.2500 H   0  0  0  0  0
  -10.0080   -9.9030    4.5450 H   0  0  0  0  0
  -11.0980   -9.0160    6.3410 H   0  0  0  0  0
  -12.4590   -8.8570    5.3620 H   0  0  0  0  0
  -12.8390  -10.1080    7.1370 H   0  0  0  0  0
  -13.3210   -8.8190    1.9760 H   0  0  0  0  0
  -12.9480   -7.3440    0.2340 H   0  0  0  0  0
  -11.0000   -8.3340   -0.7440 H   0  0  0  0  0
  -10.1350   -6.7270    1.2600 H   0  0  0  0  0
  -10.4930   -5.0080   -0.3480 H   0  0  0  0  0
  -12.6080   -4.8450    1.5450 H   0  0  0  0  0
  -10.9240   -6.4060    3.6010 H   0  0  0  0  0
  -12.5520   -4.0410    3.9390 H   0  0  0  0  0
  -13.6490   -5.2330    4.3440 H   0  0  0  0  0
  -12.2410   -4.7570    6.1200 H   0  0  0  0  0
  1  2  1  0  0  0
  1  9  1  0  0  0
  1 73  1  0  0  0
  1 78  1  0  0  0
  2  3  1  0  0  0
  2  4  1  0  0  0
  2 79  1  0  0  0
 80  3  1  0  0  0
  4  5  1  0  0  0
  4  6  1  0  0  0
  4 81  1  0  0  0
 82  5  1  0  0  0
  6  7  1  0  0  0
  6  8  1  0  0  0
  6 83  1  0  0  0
 12  7  1  0  0  0
  8  9  1  0  0  0
  8 10  1  0  0  0
  8 84  1  0  0  0
 10 11  1  0  0  0
 10 85  1  0  0  0
 10 86  1  0  0  0
 87 11  1  0  0  0
 12 13  1  0  0  0
 12 20  1  0  0  0
 12 88  1  0  0  0
 13 14  1  0  0  0
 13 15  1  0  0  0
 13 89  1  0  0  0
 90 14  1  0  0  0
 15 16  1  0  0  0
 15 17  1  0  0  0
 15 91  1  0  0  0
 92 16  1  0  0  0
 17 18  1  0  0  0
 17 19  1  0  0  0
 17 93  1  0  0  0
 23 18  1  0  0  0
 19 20  1  0  0  0
 19 21  1  0  0  0
 19 94  1  0  0  0
 21 22  1  0  0  0
 21 95  1  0  0  0
 21 96  1  0  0  0
 97 22  1  0  0  0
 23 24  1  0  0  0
 23 31  1  0  0  0
 23 98  1  0  0  0
 24 25  1  0  0  0
 24 26  1  0  0  0
 24 99  1  0  0  0
100 25  1  0  0  0
 26 27  1  0  0  0
 26 28  1  0  0  0
 26101  1  0  0  0
102 27  1  0  0  0
 28 29  1  0  0  0
 28 30  1  0  0  0
 28103  1  0  0  0
 34 29  1  0  0  0
 30 31  1  0  0  0
 30 32  1  0  0  0
 30104  1  0  0  0
 32 33  1  0  0  0
 32105  1  0  0  0
 32106  1  0  0  0
107 33  1  0  0  0
 34 35  1  0  0  0
 34 42  1  0  0  0
 34108  1  0  0  0
 35 36  1  0  0  0
 35 37  1  0  0  0
 35109  1  0  0  0
110 36  1  0  0  0
 37 38  1  0  0  0
 37 39  1  0  0  0
 37111  1  0  0  0
112 38  1  0  0  0
 39 40  1  0  0  0
 39 41  1  0  0  0
 39113  1  0  0  0
 45 40  1  0  0  0
 41 42  1  0  0  0
 41 43  1  0  0  0
 41114  1  0  0  0
 43 44  1  0  0  0
 43115  1  0  0  0
 43116  1  0  0  0
117 44  1  0  0  0
 45 46  1  0  0  0
 45 53  1  0  0  0
 45118  1  0  0  0
 46 47  1  0  0  0
 46 48  1  0  0  0
 46119  1  0  0  0
120 47  1  0  0  0
 48 49  1  0  0  0
 48 50  1  0  0  0
 48121  1  0  0  0
122 49  1  0  0  0
 50 51  1  0  0  0
 50 52  1  0  0  0
 50123  1  0  0  0
 56 51  1  0  0  0
 52 53  1  0  0  0
 52 54  1  0  0  0
 52124  1  0  0  0
 54 55  1  0  0  0
 54125  1  0  0  0
 54126  1  0  0  0
127 55  1  0  0  0
 56 57  1  0  0  0
 56 64  1  0  0  0
 56128  1  0  0  0
 57 58  1  0  0  0
 57 59  1  0  0  0
 57129  1  0  0  0
130 58  1  0  0  0
 59 60  1  0  0  0
 59 61  1  0  0  0
 59131  1  0  0  0
132 60  1  0  0  0
 61 62  1  0  0  0
 61 63  1  0  0  0
 61133  1  0  0  0
 67 62  1  0  0  0
 63 64  1  0  0  0
 63 65  1  0  0  0
 63134  1  0  0  0
 65 66  1  0  0  0
 65135  1  0  0  0
 65136  1  0  0  0
137 66  1  0  0  0
 67 68  1  0  0  0
 67 75  1  0  0  0
 67138  1  0  0  0
 68 69  1  0  0  0
 68 70  1  0  0  0
 68139  1  0  0  0
140 69  1  0  0  0
 70 71  1  0  0  0
 70 72  1  0  0  0
 70141  1  0  0  0
142 71  1  0  0  0
 72 73  1  0  0  0
 72 74  1  0  0  0
 72143  1  0  0  0
 74 75  1  0  0  0
 74 76  1  0  0  0
 74144  1  0  0  0
 76 77  1  0  0  0
 76145  1  0  0  0
 76146  1  0  0  0
147 77  1  0  0  0
M  END
$$$$
